Auto-Transcript Start Time:  22:23:41, 19 Dec 2023 中国标准时间 
Current Directory: "D:\Objects3D\fluent\fuelCell\H2BIKE\fluent"

              Welcome to ANSYS Fluent 2022 R1

              Copyright 1987-2022 ANSYS, Inc. All Rights Reserved.
              Unauthorized use, distribution or duplication is prohibited.
              This product is subject to U.S. laws governing export and re-export.
              For full Legal Notice, see documentation.

Build Time: Nov 29 2021 12:14:46 EST  Build Id: 10213  
 
Connected License Server List:	
Host spawning Node 0 on machine "DESKTOP-6MJKVPJ" (win64).

------------------------------------------------------------------------------------------
ID    Hostname         Core  O.S.         PID    Vendor                                  
------------------------------------------------------------------------------------------
n7    DESKTOP-6MJKVPJ  8/20  Windows-x64  8676   12th Gen Intel(R) Core(TM) i7-12700H    
n6    DESKTOP-6MJKVPJ  7/20  Windows-x64  14880  12th Gen Intel(R) Core(TM) i7-12700H    
n5    DESKTOP-6MJKVPJ  6/20  Windows-x64  3668   12th Gen Intel(R) Core(TM) i7-12700H    
n4    DESKTOP-6MJKVPJ  5/20  Windows-x64  18308  12th Gen Intel(R) Core(TM) i7-12700H    
n3    DESKTOP-6MJKVPJ  4/20  Windows-x64  17440  12th Gen Intel(R) Core(TM) i7-12700H    
n2    DESKTOP-6MJKVPJ  3/20  Windows-x64  16340  12th Gen Intel(R) Core(TM) i7-12700H    
n1    DESKTOP-6MJKVPJ  2/20  Windows-x64  21452  12th Gen Intel(R) Core(TM) i7-12700H    
n0*   DESKTOP-6MJKVPJ  1/20  Windows-x64  14548  12th Gen Intel(R) Core(TM) i7-12700H    
host  DESKTOP-6MJKVPJ        Windows-x64  13696  12th Gen Intel(R) Core(TM) i7-12700H    

MPI Option Selected: intel
Selected system interconnect: default
------------------------------------------------------------------------------------------

Cleanup script file is D:\\Objects3D\\fluent\\fuelCell\\H2BIKE\\fluent\\cleanup-fluent-DESKTOP-6MJKVPJ-13696.bat
(cx-gui-do cx-activate-tab-index "NavigationPane*Frame1(TreeTab)" 0)

Meshing> 
Importing one geom object per program-controlled and one zone per body ...
    E:\\Ansys\\Ansys.Products.2022.R1.Win64\\Program Files\\ANSYS Inc\\v221\\commonfiles\\CPython\\3_7\\winx64\\Release\\python\\..\\Ansys\\TGrid\\CADReaders.py started by MelonJam on DESKTOP-6MJKVPJ winx64 on Tue Dec 19 22:23:52 2023
    using Python 3.7.11 (remotes/origin/b0b4eda9448d622fbb214539623a7f129f39e1f4-dirty:b0b4eda, Oct 18 20) [MSC v.1920 64 bit (AMD64)]
    
    using Ansys.Meshing.FieldMesher build Nov 30 2021 12:29:41 including TGLib build Nov 12 2019 13:13:16
    
    running ANSYS TGrid CADToTGridConverter ...
    setting up parameters ...
    setting up parameters done.
    running conversion ...
    converting 1 file(s) from Workbench to FLTG using output path 'D:\\Objects3D\\fluent\\fuelCell\\H2BIKE\\fluent\\FM_DESKTOP-6MJKVPJ_2116/out17029958322116.tgf'
    converting file 'cathod.scdoc' (1 of 1) from Workbench to FLTG using output path 'D:\\Objects3D\\fluent\\fuelCell\\H2BIKE\\fluent\\FM_DESKTOP-6MJKVPJ_2116'
    importing data ...
    importing meshing model from PartMgr from file 'D:/Objects3D/fluent/fuelCell/H2BIKE/fluent/cathod.scdoc' ...
    setting enclosure and symmetry processing to False
    setting transfer named selections to True
    setting named selection prefixes to ''
    setting mixed import resolution type to 'SolidAndSurface'
    setting target application to 'FluentMeshing'
    attaching to assembly ...
    attaching to assembly done in 5.563 [s]
    Warning: ?????????
    processing assembly 'D:\\Objects3D\\fluent\\fuelCell\\H2BIKE\\fluent\\cathod.scdoc' with ID 1 and reference key '<?xml version="1.0" encoding="utf-16"?>
    <IdTable xmlns:xsd="http://www.w3.org/2001/XMLSchema" xmlns:xsi="http://www.w3.org/2001/XMLSchema-instance">
      <Table>
        <Entry>
          <Text>&lt;SnippetV1 sctype="SpaceClaim.OccurrenceMoniker`1[[SpaceClaim.IEvaluation, Core]], Core"&gt;&lt;instanceMoniker sctype="SpaceClaim.BasicMoniker`1[[SpaceClaim.IInstance, Core]], Core" refId="ee081486-b71e-45ee-8b17-979c281f2922:3983" /&gt;&lt;originalMoniker sctype="SpaceClaim.BasicMoniker`1[[SpaceClaim.IEvaluation, Core]], Core" refId="ee081486-b71e-45ee-8b17-979c281f2922:3979" /&gt;&lt;/SnippetV1&gt;</Text>
          <Id>10000</Id>
          <IsExploded>false</IsExploded>
        </Entry>
      </Table>
    </IdTable>'
    length unit = [m]
    processing part 'fluid_region' with ID 3
    processing named selection 'inlet'
    processing named selection 'outlet'
    processing named selection 'boi_cur_outer'
    processing named selection 'boi_cur_inner'
    processing named selection 'boi_cur_in_out'
    processing data ...
    removing named collections of entities ...
    removing named collections of entities stopped, no named collections selected.
    analyzing feature edges ...
    detecting feature edges, feature angle = 40 [deg] ...
        Data information
            Meshing model
                Attributes:
                    'LengthUnit': '[mm]'
                Entity summary:
                    Collection: 5
                    Component : 2
                    Body      : 1
                    Shell     : 1
                    Face      : 651
                    Loop      : 699
                    Edge      : 2091
                    Vertex    : 1394
                    Surface   : 651
                    Curve     : 2091
                Tessellation summary:
                    Face facets  : 13272
                    Edge segments: 7239
                Bounding box:
                    (-75.75000000000001, 0, -23.25) x (75.75, 4, 23.25)
                Assembly component hierarchy:
                    'D:\\Objects3D\\fluent\\fuelCell\\H2BIKE\\fluent\\cathod.scdoc'
                      'fluid_region'
                NamedCollections:
                    'inlet'
                    'outlet'
                    'boi_cur_outer'
                    'boi_cur_inner'
                    'boi_cur_in_out'
    
    
    exporting FLTG data to file 'D:\\Objects3D\\fluent\\fuelCell\\H2BIKE\\fluent\\FM_DESKTOP-6MJKVPJ_2116\\out17029958322116.tgf' ...
    writing face-based mesh file 'D:\\Objects3D\\fluent\\fuelCell\\H2BIKE\\fluent\\FM_DESKTOP-6MJKVPJ_2116\\out17029958322116.tgf' ...
    ======== Exported Data ========
    Entity summary:
        Object       : 1
        Object region: 6
        Zone         : 13
    
    running conversion done.
    running ANSYS TGrid CADToTGridConverter done.
    ran ANSYS TGrid CADToTGridConverter in 5.823 [s]

Reading "D:\Objects3D\fluent\fuelCell\H2BIKE\fluent\FM_DESKTOP-6MJKVPJ_2116/out17029958322116.tgf"...
Reading "D:\Objects3D\fluent\fuelCell\H2BIKE\fluent\FM_DESKTOP-6MJKVPJ_2116/out17029958322116.tgf"...
nodes: 13083
edges: 7132
faces: 13272
cells: 0
reading 13083 storage data (id 1, type 41, double precision binary).
generating pointers...done.
extracting boundary entities...
 13083 boundary nodes.
 13272 boundary faces.
 6 boundary face zones.
done.

preparing mesh for display...done.
analyzing boundary connectivity...done.

---------------- Import of cathod, consisting of one single part/object , complete. 
 
(cx-use-window-id 51)
(cx-set-camera-relative '(-88.2208 43.2222 -58.631) '(0 0 0) '(-0.0883501 -0.658796 -0.307163) 0 0)
(cx-use-window-id 51)
(cx-set-camera-relative '(46.2932 -29.7409 64.6094) '(0 0 0) '(0.0452796 0.556227 0.2244) 0 0)
(cx-use-window-id 51)
(cx-set-camera-relative '(-85.8788 -84.3377 99.1548) '(0 0 0) '(0.151033 0.159795 0.0707968) 0 0)
(cx-use-window-id 51)
(cx-set-camera-relative '(0.424252 28.1632 18.1565) '(0 0 0) '(-0.00283447 -0.0310141 -0.0415097) 0 0)

---------------- A local size of 0.1 was added to facesize_1
---- Warning--- The string 'boi' was detected in one of the selected zone names ( origin-boi_cur_in_out ). Did you intend to create a Body Of Influence?
---- Warning--- The string 'boi' was detected in one of the selected zone names ( origin-boi_cur_inner ). Did you intend to create a Body Of Influence?
---- Warning--- The string 'boi' was detected in one of the selected zone names ( origin-boi_cur_outer ). Did you intend to create a Body Of Influence?
Writing "D:\Objects3D\fluent\fuelCell\H2BIKE\fluent\FM_DESKTOP-6MJKVPJ_2116\TaskObject3.msh.h5" ...
writing 1 node zones
writing 7 edge zones 
writing 6 face zones 
done.    processing size functions/scoped sizing to create Size Field...

Writing "D:\Objects3D\fluent\fuelCell\H2BIKE\fluent\FM_DESKTOP-6MJKVPJ_2116\cathod.sf"...
Writing "D:\Objects3D\fluent\fuelCell\H2BIKE\fluent\FM_DESKTOP-6MJKVPJ_2116\cathod.sf"...
Done.


Importing one mesh object per program-controlled and one zone per body ...
    E:\\Ansys\\Ansys.Products.2022.R1.Win64\\Program Files\\ANSYS Inc\\v221\\commonfiles\\CPython\\3_7\\winx64\\Release\\python\\..\\Ansys\\TGrid\\CADReaders.py started by MelonJam on DESKTOP-6MJKVPJ winx64 on Tue Dec 19 22:24:35 2023
    using Python 3.7.11 (remotes/origin/b0b4eda9448d622fbb214539623a7f129f39e1f4-dirty:b0b4eda, Oct 18 20) [MSC v.1920 64 bit (AMD64)]
    
    using Ansys.Meshing.FieldMesher build Nov 30 2021 12:29:41 including TGLib build Nov 12 2019 13:13:16
    
    running ANSYS TGrid CADToTGridConverter ...
    setting up parameters ...
    setting up parameters done.
    running conversion ...
    converting 1 file(s) from Workbench to FLTG using output path 'D:\\Objects3D\\fluent\\fuelCell\\H2BIKE\\fluent\\FM_DESKTOP-6MJKVPJ_2116/out17029958752116.tgf'
    converting file 'cathod.scdoc.pmdb' (1 of 1) from Workbench to FLTG using output path 'D:\\Objects3D\\fluent\\fuelCell\\H2BIKE\\fluent\\FM_DESKTOP-6MJKVPJ_2116'
    importing data ...
    importing meshing model from PartMgr from file 'D:\\Objects3D\\fluent\\fuelCell\\H2BIKE\\fluent\\FM_DESKTOP-6MJKVPJ_2116\\\\cathod.scdoc.pmdb' ...
    setting enclosure and symmetry processing to False
    setting transfer named selections to True
    setting named selection prefixes to ''
    setting mixed import resolution type to 'SolidAndSurface'
    setting target application to 'FluentMeshing'
    initializing part manager from file ...
    processing assembly 'D:\\Objects3D\\fluent\\fuelCell\\H2BIKE\\fluent\\cathod.scdoc' with ID 1 and reference key '<?xml version="1.0" encoding="utf-16"?>
    <IdTable xmlns:xsd="http://www.w3.org/2001/XMLSchema" xmlns:xsi="http://www.w3.org/2001/XMLSchema-instance">
      <Table>
        <Entry>
          <Text>&lt;SnippetV1 sctype="SpaceClaim.OccurrenceMoniker`1[[SpaceClaim.IEvaluation, Core]], Core"&gt;&lt;instanceMoniker sctype="SpaceClaim.BasicMoniker`1[[SpaceClaim.IInstance, Core]], Core" refId="ee081486-b71e-45ee-8b17-979c281f2922:3983" /&gt;&lt;originalMoniker sctype="SpaceClaim.BasicMoniker`1[[SpaceClaim.IEvaluation, Core]], Core" refId="ee081486-b71e-45ee-8b17-979c281f2922:3979" /&gt;&lt;/SnippetV1&gt;</Text>
          <Id>10000</Id>
          <IsExploded>false</IsExploded>
        </Entry>
      </Table>
    </IdTable>'
    length unit = [m]
    processing part 'fluid_region' with ID 3
    processing named selection 'inlet'
    processing named selection 'outlet'
    processing named selection 'boi_cur_outer'
    processing named selection 'boi_cur_inner'
    processing named selection 'boi_cur_in_out'
    processing data ...
    loading size function background grid from file 'D:\\Objects3D\\fluent\\fuelCell\\H2BIKE\\fluent\\FM_DESKTOP-6MJKVPJ_2116\\\\cathod.sf' ...
    reading size function background grid file 'D:\\Objects3D\\fluent\\fuelCell\\H2BIKE\\fluent\\FM_DESKTOP-6MJKVPJ_2116\\\\cathod.sf' ...
     Read 369273 vertices
    initializing size function background grid done in 0.179 [s]
    tessellating 651 faces done in 7.048 [s]
    removing named collections of entities ...
    removing named collections of entities stopped, no named collections selected.
    analyzing feature edges ...
    detecting feature edges, feature angle = 40 [deg] ...
        Data information
            Meshing model
                Attributes:
                    'LengthUnit': '[mm]'
                Entity summary:
                    Collection: 5
                    Component : 2
                    Body      : 1
                    Shell     : 1
                    Face      : 651
                    Loop      : 699
                    Edge      : 2091
                    Vertex    : 1394
                    Surface   : 651
                    Curve     : 2091
                Tessellation summary:
                    Face facets  : 515786
                    Edge segments: 68102
                Bounding box:
                    (-75.75, 0, -23.25) x (75.75, 4, 23.25)
                Assembly component hierarchy:
                    'D:\\Objects3D\\fluent\\fuelCell\\H2BIKE\\fluent\\cathod.scdoc'
                      'fluid_region'
                NamedCollections:
                    'inlet'
                    'outlet'
                    'boi_cur_outer'
                    'boi_cur_inner'
                    'boi_cur_in_out'
    
    
    exporting FLTG data to file 'D:\\Objects3D\\fluent\\fuelCell\\H2BIKE\\fluent\\FM_DESKTOP-6MJKVPJ_2116\\out17029958752116.tgf' ...
    writing face-based mesh file 'D:\\Objects3D\\fluent\\fuelCell\\H2BIKE\\fluent\\FM_DESKTOP-6MJKVPJ_2116\\out17029958752116.tgf' ...
    ======== Exported Data ========
    Entity summary:
        Object       : 1
        Object region: 6
        Zone         : 13
    
    running conversion done.
    running ANSYS TGrid CADToTGridConverter done.
    ran ANSYS TGrid CADToTGridConverter in 8.149 [s]

Reading "D:\Objects3D\fluent\fuelCell\H2BIKE\fluent\FM_DESKTOP-6MJKVPJ_2116/out17029958752116.tgf"...
Reading "D:\Objects3D\fluent\fuelCell\H2BIKE\fluent\FM_DESKTOP-6MJKVPJ_2116/out17029958752116.tgf"...
nodes: 324442
edges: 67234
faces: 515786
cells: 0
reading 324442 storage data (id 1, type 41, double precision binary).
appending mesh...
done.
generating pointers...done.
extracting boundary entities...
 337525 boundary nodes.
 529058 boundary faces.
 12 boundary face zones.
done.

Reading "D:\Objects3D\fluent\fuelCell\H2BIKE\fluent\FM_DESKTOP-6MJKVPJ_2116\\cathod.sf"...
Reading "D:\Objects3D\fluent\fuelCell\H2BIKE\fluent\FM_DESKTOP-6MJKVPJ_2116\\cathod.sf"...
 Read 369273 vertices
0 faces marked.

    computing regions...done
Deleting import_curvature_0
Deleting import_proximity_0
    processing size functions/scoped sizing to create Size Field...

Writing "D:\Objects3D\fluent\fuelCell\H2BIKE\fluent\FM_DESKTOP-6MJKVPJ_2116\cathod.sf"...
Writing "D:\Objects3D\fluent\fuelCell\H2BIKE\fluent\FM_DESKTOP-6MJKVPJ_2116\cathod.sf"...
Done.


remeshing...


------------------------- --------------------- -------------------- ---------------- ----------
                     name skewed-cells (> 0.80)    averaged-skewness maximum-skewness face count
------------------------- --------------------- -------------------- ---------------- ----------
      fluid_region-region                   196          0.054202081       0.89473364     332510

------------------------- --------------------- -------------------- ---------------- ----------
                     name skewed-cells (> 0.80)    averaged-skewness maximum-skewness face count
------------------------- --------------------- -------------------- ---------------- ----------
      fluid_region-region                   196          0.054202081       0.89473364     332510


---------------- After Surface mesh, the model consists of 1 fluid/solid regions and 0 voids.

---------------- Surface Meshing of cathod complete in  0.52 minutes, with a maximum skewness of  0.89. 

---- Warning--- To improve the quality, insert the 'Improve Surface Mesh' task

(cx-use-window-id 51)
(cx-set-camera-relative '(-16.5217 2.64889 -6.82526) '(0 0 0) '(0.0741713 -0.210519 -0.236364) 0 0)
(cx-use-window-id 51)
(cx-set-camera-relative '(65.166 -49.1209 33.8441) '(0 0 0) '(-0.00343719 0.417268 0.68389) 0 0)
(cx-use-window-id 51)
(cx-set-camera-relative '(-46.9152 64.1797 -32.5705) '(0 0 0) '(-0.0436824 -0.336318 -0.60131) 0 0)
(cx-use-window-id 51)
(cx-set-camera-relative '(-53.6421 25.0167 -70.0374) '(0 0 0) '(0.160133 -0.365205 -0.241414) 0 0)
Writing "D:\Objects3D\fluent\fuelCell\H2BIKE\fluent\FM_DESKTOP-6MJKVPJ_2116\TaskObject5.msh.h5" ...
writing 3 node zones
writing 14 edge zones 
writing 12 face zones 
done.---- Warning--- The model only have one object. Share Topology might not be needed
0 pair(s) found.

    computing regions...done
0 faces marked.
Deleting import_curvature_0
Deleting import_proximity_0
    processing size functions/scoped sizing to create Size Field...

Writing "D:\Objects3D\fluent\fuelCell\H2BIKE\fluent\FM_DESKTOP-6MJKVPJ_2116\fluid_region-region.sf"...
Writing "D:\Objects3D\fluent\fuelCell\H2BIKE\fluent\FM_DESKTOP-6MJKVPJ_2116\fluid_region-region.sf"...
Done.


remeshing...


------------------------- --------------------- -------------------- ---------------- ----------
                     name skewed-cells (> 0.80)    averaged-skewness maximum-skewness face count
------------------------- --------------------- -------------------- ---------------- ----------
      fluid_region-region                     0          0.052828245       0.65143996     331836

------------------------- --------------------- -------------------- ---------------- ----------
                     name skewed-cells (> 0.80)    averaged-skewness maximum-skewness face count
------------------------- --------------------- -------------------- ---------------- ----------
      fluid_region-region                     0          0.052828245       0.65143996     331836


---------------- Surface Quality improvement of fluid_region-region complete in :  0.02 minutes. The final maximum surface skewness is  0.65. 


---------------- Velocity-inlet zone type was automatically assigned to zones containing the string 'inlet'.

---------------- Pressure-outlet zone type was automatically assigned to zones containing the string 'outlet'.

---------------- After Surface mesh, the model consists of 1 fluid/solid regions and 0 voids.

---------------- Share Topology of fluid_region-region complete in  0.33 minutes with a maximum skewness of  0.65. 


---------------- Boundary Conditions Updated

---------------- Regions Updated

Created Scoped Prism: smooth-transition_1

---------------- Inflation control added to fluid_region-region
Writing "D:\Objects3D\fluent\fuelCell\H2BIKE\fluent\FM_DESKTOP-6MJKVPJ_2116\TaskObject11.msh.h5" ...
writing 10 node zones
writing 20 edge zones 
writing 12 face zones 
done.
    updating regions...
    done.
checking object "fluid_region-region"...
    skipping validating regions of mesh object "fluid_region-region"...done.
auto meshing object fluid_region-region...

processing scoped prisms...
    starting orientation...done.
    setting prism growth...done.
done.
Identifying Topology...

Generating Prisms...

Generating initial mesh...
.


Refining mesh...

Create polyhedra ...
.

.

.

.

.


Merging Domains...
done.

Quality Measure has been changed to Orthogonal Quality.
                     name       id cells (quality < 0.10)  minimum quality cell count
------------------------- -------- ---------------------- ---------------- ----------
      fluid_region-region    37611                     11      0.075042434    1349969

                     name       id cells (quality < 0.10)  minimum quality cell count
------------------------- -------- ---------------------- ---------------- ----------
          Overall Summary     none                     11      0.075042434    1349969

[Quality Measure : Orthogonal Quality]

---------------- 1349969 cells were created in :  0.83 minutes

---------------- The mesh has a minimum Orthogonal Quality of:  0.08 

---------------- The volume meshing of fluid_region-region is complete.

(cx-gui-do cx-activate-item "ToolBar*Mesh Display*fl_mesh_svg_graphics_toolbar")
(cx-gui-do cx-activate-tab-index "Display Grid*Frame1" 0)
(cx-gui-do cx-activate-tab-index "Display Grid*Frame1" 1)
(cx-gui-do cx-activate-tab-index "Display Grid*Frame1" 0)
(cx-gui-do cx-activate-tab-index "Display Grid*Frame1" 2)
(cx-gui-do cx-activate-tab-index "Display Grid*Frame1" 0)
(cx-gui-do cx-activate-tab-index "Display Grid*Frame1" 3)
(cx-gui-do cx-activate-tab-index "Display Grid*Frame1" 0)
(cx-gui-do cx-activate-tab-index "Display Grid*Frame1" 4)
(cx-gui-do cx-activate-tab-index "Display Grid*Frame1" 0)
(cx-gui-do cx-activate-tab-index "Display Grid*Frame1" 5)
(cx-gui-do cx-activate-tab-index "Display Grid*Frame1" 0)
(cx-gui-do cx-activate-tab-index "Display Grid*Frame1" 2)
(cx-gui-do cx-activate-item "Display Grid*PanelButtons*PushButton2(Cancel)")
(cx-use-window-id 51)
(cx-set-camera-relative '(-32.8923 22.0198 -37.1485) '(0 0 0) '(-0.284082 -0.649451 -0.117975) 0 0)
(cx-use-window-id 51)
(cx-set-camera-relative '(2.41231 -1.45137 1.10295) '(0 0 0) '(0.375638 0.714949 0.131907) 0 0)
(cx-use-window-id 51)
(cx-set-camera-relative '(-1.78283 1.16878 0.600928) '(0 0 0) '(-0.142931 -0.173096 -0.0940895) 0 0)
(cx-gui-do cx-activate-item "Ribbon*Frame1*Frame2(Task Page)*Table1*Table3(Solution)*PushButton1(Switch to Solution)")
(cx-gui-do cx-activate-item "Question*OK")

Inhomogeneous process distribution on multiple machines.
Or processes per machine not an exact multiple of GPGPU's per machine.
Or not enough GPGPU's per machine.
GPGPU computing disabled.


unused zone boundary-node-17 removed
unused zone boundary-node-19355 removed
unused zone boundary-node-19357 removed
unused zone boundary-node-19359 removed
unused zone boundary-node-19361 removed
unused zone boundary-node-19363 removed
unused zone boundary-node-19365 removed
unused zone boundary-node-37581 removed
Note: Rank = 0: Process affinity not being set (6).
Note: Rank = 1: Process affinity not being set (6).
Note: Rank = 2: Process affinity not being set (6).
Note: Rank = 3: Process affinity not being set (6).
Note: Rank = 4: Process affinity not being set (6).
Note: Rank = 5: Process affinity not being set (6).
Note: Rank = 6: Process affinity not being set (6).
Note: Rank = 7: Process affinity not being set (6).

Transferring mesh
	creating threads... done
	transferring nodes... done
	transferring cells... done
	transferring faces... done
	post mesh transfer operations... done
done

Building...
     mesh
	auto partitioning mesh by Metis (fast),
	distributing mesh
		parts........,
		faces........,
		nodes........,
		cells........,
        bandwidth reduction using Reverse Cuthill-McKee: 172534/5452 = 31.646
     materials,
     interface,
     domains,
     zones,
	interior--fluid_region-region
	boi_cur_outer
	boi_cur_in_out
	boi_cur_inner
	s1
	outlet
	inlet
	fluid_region-region
     surfaces,
     parallel,
Done.
Mesh is now scaled to meters.

Preparing mesh for display...
Done.
(cx-gui-do cx-activate-tab-index "NavigationPane*Frame1(TreeTab)" 1)
(newline)


> (cx-gui-do cx-set-list-tree-selections "NavigationPane*Frame2*Table1*List_Tree2" (list "Setup|Models|Viscous (SST k-omega)"))
(cx-gui-do cx-set-list-tree-selections "NavigationPane*Frame2*Table1*List_Tree2" (list "Setup|Models|Viscous (SST k-omega)"))
(cx-gui-do cx-activate-item "NavigationPane*Frame2*Table1*List_Tree2")
(cx-gui-do cx-set-list-tree-selections "NavigationPane*Frame2*Table1*List_Tree2" (list "Setup|Models|Viscous (SST k-omega)"))
(cx-gui-do cx-set-toggle-button2 "Viscous Model*Table1*ToggleBox1(Model)*Laminar" #t)
(cx-gui-do cx-activate-item "Viscous Model*Table1*ToggleBox1(Model)*Laminar")
(cx-gui-do cx-activate-item "Viscous Model*PanelButtons*PushButton1(OK)")
(cx-gui-do cx-set-list-tree-selections "NavigationPane*Frame2*Table1*List_Tree2" (list "Setup|Models|Species (Off)"))
(cx-gui-do cx-set-list-tree-selections "NavigationPane*Frame2*Table1*List_Tree2" (list "Setup|Models|Species (Off)"))
(cx-gui-do cx-activate-item "NavigationPane*Frame2*Table1*List_Tree2")
(cx-gui-do cx-set-list-tree-selections "NavigationPane*Frame2*Table1*List_Tree2" (list "Setup|Models|Species (Off)"))
(cx-gui-do cx-activate-tab-index "Species Model*Table2*Frame3" 0)
(cx-gui-do cx-activate-tab-index "Species Model*Table2*Frame3" 1)
(cx-gui-do cx-activate-tab-index "Species Model*Table2*Frame3" 0)
(cx-gui-do cx-activate-tab-index "Species Model*Table2*Frame3" 2)
(cx-gui-do cx-activate-tab-index "Species Model*Table2*Frame3" 0)
(cx-gui-do cx-activate-tab-index "Species Model*Table2*Frame4(PDF Table Creation)" 0)
(cx-gui-do cx-activate-tab-index "Species Model*Table2*Frame4(PDF Table Creation)" 1)
(cx-gui-do cx-activate-tab-index "Species Model*Table2*Frame4(PDF Table Creation)" 0)
(cx-gui-do cx-activate-tab-index "Species Model*Table2*Frame4(PDF Table Creation)" 2)
(cx-gui-do cx-activate-tab-index "Species Model*Table2*Frame4(PDF Table Creation)" 0)
(cx-gui-do cx-activate-tab-index "Species Model*Table2*Frame4(PDF Table Creation)" 3)
(cx-gui-do cx-activate-tab-index "Species Model*Table2*Frame4(PDF Table Creation)" 0)
(cx-gui-do cx-activate-tab-index "Species Model*Table2*Frame4(PDF Table Creation)" 4)
(cx-gui-do cx-activate-tab-index "Species Model*Table2*Frame4(PDF Table Creation)" 0)
(cx-gui-do cx-activate-tab-index "Species Model*Table2*Frame4(PDF Table Creation)" 5)
(cx-gui-do cx-activate-tab-index "Species Model*Table2*Frame4(PDF Table Creation)" 0)
(cx-gui-do cx-activate-tab-index "Species Model*Table2*Frame4(PDF Table Creation)" 6)
(cx-gui-do cx-activate-tab-index "Species Model*Table2*Frame4(PDF Table Creation)" 0)
(cx-gui-do cx-set-toggle-button2 "Species Model*Table1*ToggleBox1(Model)*Species Transport" #t)
(cx-gui-do cx-activate-item "Species Model*Table1*ToggleBox1(Model)*Species Transport")
(cx-gui-do cx-activate-item "Species Model*PanelButtons*PushButton1(OK)")

Adjusting the following setting:
Density explicit underrelaxation factor: from:     1   to:  0.25

Note: Enabling energy equation as required by material density method.
(cx-gui-do cx-set-list-tree-selections "NavigationPane*Frame2*Table1*List_Tree2" (list "Setup|Models|Species (Species Transport)"))
(cx-gui-do cx-set-list-tree-selections "NavigationPane*Frame2*Table1*List_Tree2" (list "Setup|Materials|Mixture|mixture-template"))
(cx-gui-do cx-set-list-tree-selections "NavigationPane*Frame2*Table1*List_Tree2" (list "Setup|Materials|Mixture|mixture-template"))
(cx-gui-do cx-activate-item "NavigationPane*Frame2*Table1*List_Tree2")
(cx-gui-do cx-set-list-tree-selections "NavigationPane*Frame2*Table1*List_Tree2" (list "Setup|Materials|Mixture|mixture-template"))
(cx-gui-do cx-activate-item "Create/Edit Materials*PanelButtons*PushButton1(Close)")
(cx-gui-do cx-set-list-tree-selections "NavigationPane*Frame2*Table1*List_Tree2" (list "Setup|Materials|Mixture|mixture-template"))
(cx-gui-do cx-set-list-tree-selections "NavigationPane*Frame2*Table1*List_Tree2" (list "Setup|Materials|Mixture|mixture-template"))
(cx-gui-do cx-activate-item "NavigationPane*Frame2*Table1*List_Tree2")
(cx-gui-do cx-set-list-tree-selections "NavigationPane*Frame2*Table1*List_Tree2" (list "Setup|Materials|Mixture|mixture-template"))
(cx-gui-do cx-activate-item "Create/Edit Materials*PanelButtons*PushButton1(Close)")
(cx-gui-do cx-set-list-tree-selections "NavigationPane*Frame2*Table1*List_Tree2" (list "Setup|Boundary Conditions|Inlet"))
(cx-gui-do cx-set-list-tree-selections "NavigationPane*Frame2*Table1*List_Tree2" (list "Setup|Boundary Conditions|Inlet"))
(cx-gui-do cx-activate-item "NavigationPane*Frame2*Table1*List_Tree2")
(cx-gui-do cx-set-list-tree-selections "NavigationPane*Frame2*Table1*List_Tree2" (list "Setup|Boundary Conditions|Inlet"))
(cx-gui-do cx-activate-tab-index "Velocity Inlet*Frame2*Frame2" 0)
(cx-gui-do cx-activate-tab-index "Velocity Inlet*Frame2*Frame2" 1)
(cx-gui-do cx-activate-tab-index "Velocity Inlet*Frame2*Frame2" 0)
(cx-gui-do cx-activate-tab-index "Velocity Inlet*Frame2*Frame2" 2)
(cx-gui-do cx-activate-tab-index "Velocity Inlet*Frame2*Frame2" 0)
(cx-gui-do cx-activate-tab-index "Velocity Inlet*Frame2*Frame2" 3)
(cx-gui-do cx-activate-tab-index "Velocity Inlet*Frame2*Frame2" 0)
(cx-gui-do cx-activate-tab-index "Velocity Inlet*Frame2*Frame2" 4)
(cx-gui-do cx-activate-tab-index "Velocity Inlet*Frame2*Frame2" 0)
(cx-gui-do cx-activate-tab-index "Velocity Inlet*Frame2*Frame2" 5)
(cx-gui-do cx-activate-tab-index "Velocity Inlet*Frame2*Frame2" 0)
(cx-gui-do cx-activate-tab-index "Velocity Inlet*Frame2*Frame2" 6)
(cx-gui-do cx-activate-tab-index "Velocity Inlet*Frame2*Frame2" 0)
(cx-gui-do cx-activate-tab-index "Velocity Inlet*Frame2*Frame2" 7)
(cx-gui-do cx-activate-tab-index "Velocity Inlet*Frame2*Frame2" 0)
(cx-gui-do cx-activate-tab-index "Velocity Inlet*Frame2*Frame2" 8)
(cx-gui-do cx-activate-tab-index "Velocity Inlet*Frame2*Frame2" 0)
(cx-gui-do cx-set-list-tree-selections "NavigationPane*Frame2*Table1*List_Tree2" (list "Setup|Boundary Conditions|Inlet"))
(cx-gui-do cx-set-list-tree-selections "NavigationPane*Frame2*Table1*List_Tree2" (list "Setup|Boundary Conditions|Inlet|inlet (velocity-inlet, id=26)"))
(cx-gui-do cx-enable-apply-button "Velocity Inlet")
(cx-gui-do cx-set-expression-entry "Velocity Inlet*Frame2*Frame2*Frame1(Momentum)*Table1*Table8*ExpressionEntry1(Velocity Magnitude)" '("45" . 0))
(cx-gui-do cx-activate-tab-index "Velocity Inlet*Frame2*Frame2" 3)
(cx-gui-do cx-set-expression-entry "Velocity Inlet*Frame2*Frame2*Frame4(Species)*Table1*Table2(Species Mass Fractions)*Table1*ExpressionEntry1(h2o)" '("0.02" . 0))
(cx-gui-do cx-set-expression-entry "Velocity Inlet*Frame2*Frame2*Frame4(Species)*Table1*Table2(Species Mass Fractions)*Table2*ExpressionEntry1(o2)" '("0" . 0))
(cx-gui-do cx-set-expression-entry "Velocity Inlet*Frame2*Frame2*Frame4(Species)*Table1*Table2(Species Mass Fractions)*Table1*ExpressionEntry1(h2o)" '("0.02" . 0))
(cx-gui-do cx-set-expression-entry "Velocity Inlet*Frame2*Frame2*Frame4(Species)*Table1*Table2(Species Mass Fractions)*Table2*ExpressionEntry1(o2)" '("0.21" . 0))
(cx-gui-do cx-activate-item "Velocity Inlet*PanelButtons*PushButton1(OK)")
(cx-gui-do cx-enable-apply-button "Velocity Inlet")
(cx-gui-do cx-set-toggle-button2 "Velocity Inlet*Frame2*Frame2*Frame4(Species)*Table1*CheckButton1(Specify Species in Mole Fractions)" #t)
(cx-gui-do cx-activate-item "Velocity Inlet*Frame2*Frame2*Frame4(Species)*Table1*CheckButton1(Specify Species in Mole Fractions)")
(cx-gui-do cx-set-expression-entry "Velocity Inlet*Frame2*Frame2*Frame4(Species)*Table1*Table2(Species Mass Fractions)*Table1*ExpressionEntry1(h2o)" '("0.02" . 0))
(cx-gui-do cx-set-expression-entry "Velocity Inlet*Frame2*Frame2*Frame4(Species)*Table1*Table2(Species Mass Fractions)*Table2*ExpressionEntry1(o2)" '("0.21" . 0))
(cx-gui-do cx-set-expression-entry "Velocity Inlet*Frame2*Frame2*Frame4(Species)*Table1*Table2(Species Mass Fractions)*Table1*ExpressionEntry1(h2o)" '("0.022" . 0))
(cx-gui-do cx-set-expression-entry "Velocity Inlet*Frame2*Frame2*Frame4(Species)*Table1*Table2(Species Mass Fractions)*Table2*ExpressionEntry1(o2)" '("0.21" . 0))
(cx-gui-do cx-activate-item "Velocity Inlet*PanelButtons*PushButton1(OK)")
(cx-gui-do cx-activate-item "Velocity Inlet*PanelButtons*PushButton1(OK)")
(cx-gui-do cx-activate-item "Velocity Inlet*PanelButtons*PushButton2(Cancel)")
(cx-gui-do cx-set-list-tree-selections "NavigationPane*Frame2*Table1*List_Tree2" (list "Solution|Report Definitions"))
(cx-gui-do cx-set-list-tree-selections "NavigationPane*Frame2*Table1*List_Tree2" (list "Solution|Report Definitions"))
(cx-gui-do cx-activate-item "NavigationPane*Frame2*Table1*List_Tree2")
(cx-gui-do cx-set-list-tree-selections "NavigationPane*Frame2*Table1*List_Tree2" (list "Solution|Report Definitions"))
(cx-gui-do cx-activate-item "Report Definitions*Table1*ButtonBox3*PushButton1(New)")
(cx-gui-do cx-activate-item "MenuBar*Surface ReportSubMenu*Area-Weighted Average...")
(cx-gui-do cx-set-list-selections "Surface Report Definition*Table1*Table2*Table6*List1(Surfaces)" '( 0))
(cx-gui-do cx-activate-item "Surface Report Definition*Table1*Table2*Table6*List1(Surfaces)")
(cx-gui-do cx-set-list-selections "Surface Report Definition*Table1*Table2*Table6*List1(Surfaces)" '( 0 1))
(cx-gui-do cx-activate-item "Surface Report Definition*Table1*Table2*Table6*List1(Surfaces)")
(cx-gui-do cx-set-list-selections "Surface Report Definition*Table1*Table2*Table6*List1(Surfaces)" '( 0 1 2))
(cx-gui-do cx-activate-item "Surface Report Definition*Table1*Table2*Table6*List1(Surfaces)")
(cx-gui-do cx-set-list-selections "Surface Report Definition*Table1*Table2*Table6*List1(Surfaces)" '( 0 1 2 5))
(cx-gui-do cx-activate-item "Surface Report Definition*Table1*Table2*Table6*List1(Surfaces)")
(cx-gui-do cx-set-list-selections "Surface Report Definition*Table1*Table2*Table6*List1(Surfaces)" '( 1 2 5))
(cx-gui-do cx-activate-item "Surface Report Definition*Table1*Table2*Table6*List1(Surfaces)")
(cx-gui-do cx-set-list-selections "Surface Report Definition*Table1*Table2*Table6*List1(Surfaces)" '( 2 5))
(cx-gui-do cx-activate-item "Surface Report Definition*Table1*Table2*Table6*List1(Surfaces)")
(cx-gui-do cx-set-list-selections "Surface Report Definition*Table1*Table2*Table6*List1(Surfaces)" '( 5))
(cx-gui-do cx-activate-item "Surface Report Definition*Table1*Table2*Table6*List1(Surfaces)")
(cx-gui-do cx-set-list-selections "Surface Report Definition*Table1*Table2*Table6*List1(Surfaces)" '())
(cx-gui-do cx-activate-item "Surface Report Definition*Table1*Table2*Table6*List1(Surfaces)")
(cx-gui-do cx-set-list-selections "Surface Report Definition*Table1*Table2*Table6*List1(Surfaces)" '( 4))
(cx-gui-do cx-activate-item "Surface Report Definition*Table1*Table2*Table6*List1(Surfaces)")
(cx-gui-do cx-activate-item "Surface Report Definition*PanelButtons*PushButton1(OK)")
(cx-gui-do cx-activate-item "Report Definitions*PanelButtons*PushButton1(Close)")
(cx-gui-do cx-set-list-tree-selections "NavigationPane*Frame2*Table1*List_Tree2" (list "Solution|Initialization"))
(cx-gui-do cx-set-list-tree-selections "NavigationPane*Frame2*Table1*List_Tree2" (list "Solution|Initialization"))
(cx-gui-do cx-activate-item "NavigationPane*Frame2*Table1*List_Tree2")
(cx-gui-do cx-set-list-tree-selections "NavigationPane*Frame2*Table1*List_Tree2" (list "Solution|Initialization"))
(cx-gui-do cx-activate-item "Solution Initialization*Table1*Frame12*PushButton2(Initialize)")

Initialize using the hybrid initialization method.

Checking case topology... 
-This case has both inlets & outlets 
-Pressure information is not available at the boundaries.
 Case will be initialized with constant pressure

	iter		scalar-0

	1		1.000000e+00
	2		3.411993e-05
	3		8.344141e-06
	4		3.670492e-06
	5		2.357127e-06
	6		1.958471e-06
	7		1.552896e-06
	8		3.205624e-06
	9		1.029394e-06
	10		4.661950e-06

Hybrid initialization is done.

Warning: convergence tolerance of 1.000000e-06 not reached
during Hybrid Initialization.

Note: Settings to improve the robustness of pathline and
      particle tracking have been automatically enabled.

(cx-gui-do cx-set-list-tree-selections "NavigationPane*Frame2*Table1*List_Tree2" (list "Solution|Run Calculation"))
(cx-gui-do cx-set-list-tree-selections "NavigationPane*Frame2*Table1*List_Tree2" (list "Solution|Run Calculation"))
(cx-gui-do cx-activate-item "NavigationPane*Frame2*Table1*List_Tree2")
(cx-gui-do cx-set-list-tree-selections "NavigationPane*Frame2*Table1*List_Tree2" (list "Solution|Run Calculation"))
(cx-gui-do cx-set-integer-entry "Run Calculation*Table1*Table3(Parameters)*Table1*Table1*IntegerEntry1(Number of Iterations)" 150)
(cx-gui-do cx-activate-item "Run Calculation*Table1*Table3(Parameters)*Table1*Table1*IntegerEntry1(Number of Iterations)")
(cx-gui-do cx-activate-item "Run Calculation*Table1*Table6(Solution Advancement)*Table1*PushButton1(Calculate)")

(cx-gui-do cx-activate-item "Question*OK")
Creating new file D:\Objects3D\fluent\fuelCell\H2BIKE\fluent\.\\report-def-0-rfile_11_1.out

  iter  continuity  x-velocity  y-velocity  z-velocity      energy         h2o          o2     time/iter
     1  1.0000e+00  2.4598e-03  2.0715e-03  2.0663e-03  1.8030e-07  2.4222e-04  4.1067e-03  0:09:56  149
     2  5.5009e-01  1.6676e-03  1.3950e-03  1.3063e-03  1.3246e-07  2.9948e-04  2.9948e-04  0:10:51  148
        Stabilizing pressure coupled to enhance linear solver robustness.
     3  3.1762e-01  1.3088e-03  9.0896e-04  8.2171e-04  1.5238e-07  8.0456e-04  8.0456e-04  0:19:54  147
(cx-use-window-id 2)
        Stabilizing pressure coupled to enhance linear solver robustness.
     4  3.3868e-01  1.7974e-03  4.9348e-04  6.5787e-04  1.5542e-07  5.7491e-04  5.7491e-04  0:23:06  146

 Reversed flow on 155 faces (2.2% area) of pressure-outlet 27.
        Stabilizing pressure coupled to enhance linear solver robustness.
     5  2.9003e-01  1.4157e-03  3.7754e-04  4.3045e-04  9.5453e-08  3.4457e-04  3.4457e-04  0:26:06  145

 Reversed flow on 249 faces (4.7% area) of pressure-outlet 27.
        Stabilizing pressure coupled to enhance linear solver robustness.
     6  2.4400e-01  1.2485e-03  2.9052e-04  3.5174e-04  7.8153e-08  3.4769e-04  3.4769e-04  0:26:58  144

 Reversed flow on 308 faces (8.2% area) of pressure-outlet 27.
        Stabilizing pressure coupled to enhance linear solver robustness.
     7  2.3266e-01  1.1271e-03  2.5936e-04  3.1834e-04  7.7853e-08  3.6618e-04  3.6618e-04  0:28:35  143

 Reversed flow on 368 faces (12.3% area) of pressure-outlet 27.
     8  2.3009e-01  1.0123e-03  2.4344e-04  2.9580e-04  8.4517e-08  4.1095e-04  4.1095e-04  0:25:04  142

 Reversed flow on 407 faces (14.7% area) of pressure-outlet 27.
        Stabilizing pressure coupled to enhance linear solver robustness.
     9  2.3227e-01  9.1523e-04  2.3845e-04  2.8591e-04  8.9068e-08  4.1571e-04  4.1571e-04  0:26:01  141

 Reversed flow on 454 faces (18.3% area) of pressure-outlet 27.
        Stabilizing pressure coupled to enhance linear solver robustness.
    10  2.2881e-01  8.2540e-04  2.3290e-04  2.7458e-04  8.9722e-08  4.2381e-04  4.2381e-04  0:26:44  140

 Reversed flow on 485 faces (21.6% area) of pressure-outlet 27.
        Stabilizing pressure coupled to enhance linear solver robustness.
    11  2.2544e-01  7.6050e-04  2.2972e-04  2.6939e-04  8.8491e-08  4.1679e-04  4.1679e-04  0:27:43  139

 Reversed flow on 511 faces (24.8% area) of pressure-outlet 27.
        Stabilizing pressure coupled to enhance linear solver robustness.

  iter  continuity  x-velocity  y-velocity  z-velocity      energy         h2o          o2     time/iter
    12  2.2526e-01  7.3131e-04  2.3550e-04  2.7556e-04  8.5432e-08  4.0780e-04  4.0780e-04  0:28:55  138

 Reversed flow on 533 faces (28.1% area) of pressure-outlet 27.
        Stabilizing pressure coupled to enhance linear solver robustness.
    13  2.2295e-01  6.9328e-04  2.3331e-04  2.7417e-04  8.4558e-08  3.8820e-04  3.8820e-04  0:29:49  137

 Reversed flow on 549 faces (30.9% area) of pressure-outlet 27.
    14  2.1943e-01  6.7793e-04  2.3548e-04  2.7617e-04  8.4259e-08  3.7694e-04  3.7694e-04  0:25:57  136

 Reversed flow on 563 faces (33.6% area) of pressure-outlet 27.
        Stabilizing pressure coupled to enhance linear solver robustness.
    15  2.1832e-01  6.7554e-04  2.4124e-04  2.8012e-04  8.4504e-08  3.7455e-04  3.7455e-04  0:26:54  135

 Reversed flow on 577 faces (37.9% area) of pressure-outlet 27.
    16  2.1482e-01  6.7741e-04  2.4679e-04  2.8451e-04  8.5379e-08  3.9165e-04  3.9165e-04  0:23:09  134

 Reversed flow on 585 faces (40.8% area) of pressure-outlet 27.
        Stabilizing pressure coupled to enhance linear solver robustness.
    17  2.1868e-01  6.8622e-04  2.6070e-04  2.9045e-04  8.4747e-08  3.9894e-04  3.9894e-04  0:24:35  133

 Reversed flow on 591 faces (42.1% area) of pressure-outlet 27.
        Stabilizing pressure coupled to enhance linear solver robustness.
    18  2.2101e-01  6.7841e-04  2.6882e-04  2.9130e-04  8.4539e-08  4.2089e-04  4.2089e-04  0:25:15  132

 Reversed flow on 599 faces (45.5% area) of pressure-outlet 27.
    19  2.2316e-01  6.7589e-04  2.7856e-04  2.9722e-04  8.6668e-08  4.4960e-04  4.4960e-04  0:22:14  131

 Reversed flow on 609 faces (50.2% area) of pressure-outlet 27.
        Stabilizing pressure coupled to enhance linear solver robustness.
    20  2.2862e-01  6.6533e-04  2.8532e-04  3.0237e-04  9.1938e-08  4.8643e-04  4.8643e-04  0:23:43  130

 Reversed flow on 616 faces (52.6% area) of pressure-outlet 27.
        Stabilizing pressure coupled to enhance linear solver robustness.
    21  2.2785e-01  6.4429e-04  2.7713e-04  3.0189e-04  9.5008e-08  5.0942e-04  5.0942e-04  0:24:51  129

 Reversed flow on 619 faces (55.7% area) of pressure-outlet 27.
    22  2.2699e-01  6.2067e-04  2.6797e-04  2.9869e-04  1.5412e-07  1.2699e-03  1.2699e-03  0:21:51  128

 Reversed flow on 623 faces (58.8% area) of pressure-outlet 27.
        Stabilizing pressure coupled to enhance linear solver robustness.

  iter  continuity  x-velocity  y-velocity  z-velocity      energy         h2o          o2     time/iter
    23  2.2876e-01  5.9818e-04  2.6188e-04  2.9479e-04  1.9527e-07  1.2433e-03  1.2433e-03  0:23:16  127

 Reversed flow on 626 faces (59.9% area) of pressure-outlet 27.
        Stabilizing pressure coupled to enhance linear solver robustness.
    24  2.2229e-01  5.7976e-04  2.5404e-04  2.8961e-04  1.8799e-07  1.0753e-03  1.0753e-03  0:24:46  126

 Reversed flow on 632 faces (62.1% area) of pressure-outlet 27.
        Stabilizing pressure coupled to enhance linear solver robustness.
    25  2.1525e-01  5.6041e-04  2.4683e-04  2.8240e-04  1.5868e-07  8.8889e-04  8.8889e-04  0:25:30  125

 Reversed flow on 639 faces (65.7% area) of pressure-outlet 27.
    26  2.1188e-01  5.5751e-04  2.4793e-04  2.8239e-04  1.3614e-07  7.6505e-04  7.6505e-04  0:22:18  124

 Reversed flow on 645 faces (67.4% area) of pressure-outlet 27.
    27  2.1115e-01  5.4471e-04  2.4478e-04  2.7877e-04  1.2152e-07  6.9126e-04  6.9126e-04  0:19:20  123

 Reversed flow on 649 faces (68.7% area) of pressure-outlet 27.
        Stabilizing pressure coupled to enhance linear solver robustness.
    28  2.1149e-01  5.3755e-04  2.4355e-04  2.7707e-04  1.1218e-07  6.4842e-04  6.4842e-04  0:21:02  122

 Reversed flow on 648 faces (69.6% area) of pressure-outlet 27.
        Stabilizing pressure coupled to enhance linear solver robustness.
    29  2.0730e-01  5.2709e-04  2.3650e-04  2.7414e-04  1.0480e-07  6.1627e-04  6.1627e-04  0:21:56  121

 Reversed flow on 651 faces (71.1% area) of pressure-outlet 27.
    30  2.0471e-01  5.1183e-04  2.3018e-04  2.7022e-04  1.0105e-07  6.2535e-04  6.2535e-04  0:19:24  120

 Reversed flow on 654 faces (72.0% area) of pressure-outlet 27.
    31  2.0598e-01  5.1023e-04  2.3133e-04  2.7262e-04  9.4844e-08  5.8771e-04  5.8771e-04  0:17:23  119

 Reversed flow on 654 faces (72.2% area) of pressure-outlet 27.
        Stabilizing pressure coupled to enhance linear solver robustness.
    32  2.0639e-01  5.0348e-04  2.2796e-04  2.7312e-04  8.9416e-08  5.6872e-04  5.6872e-04  0:18:54  118

 Reversed flow on 660 faces (75.3% area) of pressure-outlet 27.
        Stabilizing pressure coupled to enhance linear solver robustness.
    33  2.0203e-01  4.9185e-04  2.1835e-04  2.6850e-04  8.4969e-08  5.4114e-04  5.4114e-04  0:20:04  117

 Reversed flow on 661 faces (75.9% area) of pressure-outlet 27.
        Stabilizing pressure coupled to enhance linear solver robustness.

  iter  continuity  x-velocity  y-velocity  z-velocity      energy         h2o          o2     time/iter
    34  1.9812e-01  4.8198e-04  2.1195e-04  2.6641e-04  8.1703e-08  5.2311e-04  5.2311e-04  0:21:19  116

 Reversed flow on 660 faces (75.4% area) of pressure-outlet 27.
        Stabilizing pressure coupled to enhance linear solver robustness.
    35  1.9480e-01  4.7369e-04  2.0810e-04  2.6602e-04  7.8633e-08  5.0291e-04  5.0291e-04  0:22:40  115

 Reversed flow on 659 faces (74.8% area) of pressure-outlet 27.
        Stabilizing pressure coupled to enhance linear solver robustness.
    36  1.9165e-01  4.6335e-04  2.0509e-04  2.6456e-04  7.5550e-08  4.8569e-04  4.8569e-04  0:24:03  114

 Reversed flow on 660 faces (74.7% area) of pressure-outlet 27.
    37  1.8871e-01  4.5599e-04  2.0393e-04  2.6594e-04  7.3550e-08  4.7254e-04  4.7254e-04  0:20:57  113

 Reversed flow on 663 faces (74.8% area) of pressure-outlet 27.
    38  1.8974e-01  4.4719e-04  2.0649e-04  2.6651e-04  7.2442e-08  4.5643e-04  4.5643e-04  0:18:07  112

 Reversed flow on 664 faces (75.1% area) of pressure-outlet 27.
        Stabilizing pressure coupled to enhance linear solver robustness.
    39  1.8705e-01  4.3323e-04  2.0401e-04  2.6444e-04  7.0673e-08  4.3073e-04  4.3073e-04  0:19:55  111

 Reversed flow on 666 faces (74.9% area) of pressure-outlet 27.
        Stabilizing pressure coupled to enhance linear solver robustness.
    40  1.8088e-01  4.1555e-04  1.9561e-04  2.5869e-04  6.8424e-08  4.0160e-04  4.0160e-04  0:20:55  110

 Reversed flow on 668 faces (75.4% area) of pressure-outlet 27.
        Stabilizing pressure coupled to enhance linear solver robustness.
    41  1.7518e-01  3.9804e-04  1.8825e-04  2.5342e-04  6.4688e-08  3.7254e-04  3.7254e-04  0:21:18  109

 Reversed flow on 666 faces (74.5% area) of pressure-outlet 27.
        Stabilizing pressure coupled to enhance linear solver robustness.
    42  1.7019e-01  3.8714e-04  1.8346e-04  2.5053e-04  6.1732e-08  3.5364e-04  3.5364e-04  0:22:17  108

 Reversed flow on 664 faces (74.7% area) of pressure-outlet 27.
    43  1.6512e-01  3.7648e-04  1.7852e-04  2.4745e-04  5.9255e-08  3.4229e-04  3.4229e-04  0:19:05  107

 Reversed flow on 666 faces (75.5% area) of pressure-outlet 27.
    44  1.6300e-01  3.7357e-04  1.7956e-04  2.4805e-04  5.7278e-08  3.3082e-04  3.3082e-04  0:16:54  106

 Reversed flow on 667 faces (74.9% area) of pressure-outlet 27.
        Stabilizing pressure coupled to enhance linear solver robustness.

  iter  continuity  x-velocity  y-velocity  z-velocity      energy         h2o          o2     time/iter
    45  1.6035e-01  3.6825e-04  1.7778e-04  2.4720e-04  5.4571e-08  3.1791e-04  3.1791e-04  0:18:17  105

 Reversed flow on 660 faces (75.1% area) of pressure-outlet 27.
        Stabilizing pressure coupled to enhance linear solver robustness.
    46  1.5601e-01  3.6164e-04  1.7178e-04  2.4473e-04  5.1598e-08  3.0127e-04  3.0127e-04  0:19:42  104

 Reversed flow on 660 faces (75.1% area) of pressure-outlet 27.
        Stabilizing pressure coupled to enhance linear solver robustness.
    47  1.5179e-01  3.5161e-04  1.6547e-04  2.4006e-04  4.8586e-08  2.8801e-04  2.8801e-04  0:20:25  103

 Reversed flow on 658 faces (73.9% area) of pressure-outlet 27.
    48  1.4748e-01  3.4433e-04  1.6100e-04  2.3659e-04  4.6450e-08  2.8391e-04  2.8391e-04  0:17:32  102

 Reversed flow on 660 faces (73.8% area) of pressure-outlet 27.
    49  1.4666e-01  3.4269e-04  1.6265e-04  2.3620e-04  4.4896e-08  2.8149e-04  2.8149e-04  0:15:34  101

 Reversed flow on 662 faces (74.5% area) of pressure-outlet 27.
        Stabilizing pressure coupled to enhance linear solver robustness.
    50  1.4533e-01  3.3777e-04  1.6082e-04  2.3441e-04  4.3767e-08  2.7610e-04  2.7610e-04  0:17:00  100

 Reversed flow on 661 faces (74.4% area) of pressure-outlet 27.
        Stabilizing pressure coupled to enhance linear solver robustness.
    51  1.4062e-01  3.3064e-04  1.5432e-04  2.3058e-04  4.1975e-08  2.6317e-04  2.6317e-04  0:19:04   99

 Reversed flow on 661 faces (74.4% area) of pressure-outlet 27.
        Stabilizing pressure coupled to enhance linear solver robustness.
    52  1.3705e-01  3.2610e-04  1.4948e-04  2.2781e-04  4.0467e-08  2.5132e-04  2.5132e-04  0:20:20   98

 Reversed flow on 663 faces (75.6% area) of pressure-outlet 27.
    53  1.3431e-01  3.2333e-04  1.4619e-04  2.2639e-04  4.0169e-08  2.4524e-04  2.4524e-04  0:17:43   97

 Reversed flow on 664 faces (75.2% area) of pressure-outlet 27.
    54  1.3462e-01  3.2267e-04  1.4698e-04  2.2620e-04  3.9513e-08  2.4170e-04  2.4170e-04  0:15:18   96

 Reversed flow on 661 faces (72.6% area) of pressure-outlet 27.
        Stabilizing pressure coupled to enhance linear solver robustness.
    55  1.3473e-01  3.2006e-04  1.4637e-04  2.2659e-04  3.8469e-08  2.3571e-04  2.3571e-04  0:16:52   95

 Reversed flow on 660 faces (72.5% area) of pressure-outlet 27.
        Stabilizing pressure coupled to enhance linear solver robustness.

  iter  continuity  x-velocity  y-velocity  z-velocity      energy         h2o          o2     time/iter
    56  1.3234e-01  3.1049e-04  1.4068e-04  2.2251e-04  3.7306e-08  2.3016e-04  2.3016e-04  0:18:03   94

 Reversed flow on 664 faces (73.8% area) of pressure-outlet 27.
        Stabilizing pressure coupled to enhance linear solver robustness.
    57  1.2947e-01  3.0705e-04  1.3842e-04  2.2302e-04  3.6386e-08  2.2791e-04  2.2791e-04  0:18:19   93

 Reversed flow on 665 faces (73.7% area) of pressure-outlet 27.
        Stabilizing pressure coupled to enhance linear solver robustness.
    58  1.2730e-01  3.0068e-04  1.3569e-04  2.2143e-04  3.5164e-08  2.2433e-04  2.2433e-04  0:19:24   92

 Reversed flow on 666 faces (73.8% area) of pressure-outlet 27.
    59  1.2550e-01  3.0210e-04  1.3608e-04  2.2375e-04  3.4420e-08  2.2217e-04  2.2217e-04  0:16:52   91

 Reversed flow on 667 faces (73.2% area) of pressure-outlet 27.
    60  1.2659e-01  3.0122e-04  1.3793e-04  2.2496e-04  3.3534e-08  2.1409e-04  2.1409e-04  0:14:33   90

 Reversed flow on 666 faces (72.5% area) of pressure-outlet 27.
        Stabilizing pressure coupled to enhance linear solver robustness.
    61  1.2684e-01  2.9984e-04  1.3865e-04  2.2528e-04  3.2340e-08  2.0452e-04  2.0452e-04  0:15:40   89

 Reversed flow on 667 faces (73.5% area) of pressure-outlet 27.
        Stabilizing pressure coupled to enhance linear solver robustness.
    62  1.2420e-01  2.9402e-04  1.3494e-04  2.2151e-04  3.1260e-08  1.9676e-04  1.9676e-04  0:16:30   88

 Reversed flow on 663 faces (71.0% area) of pressure-outlet 27.
        Stabilizing pressure coupled to enhance linear solver robustness.
    63  1.2196e-01  2.9139e-04  1.3353e-04  2.2029e-04  3.0370e-08  1.9432e-04  1.9432e-04  0:17:06   87

 Reversed flow on 662 faces (71.0% area) of pressure-outlet 27.
    64  1.2033e-01  2.8856e-04  1.3210e-04  2.1872e-04  2.9549e-08  1.9063e-04  1.9063e-04  0:14:58   86

 Reversed flow on 661 faces (70.4% area) of pressure-outlet 27.
    65  1.2262e-01  2.9293e-04  1.3575e-04  2.2115e-04  2.9197e-08  1.8786e-04  1.8786e-04  0:12:58   85

 Reversed flow on 659 faces (69.6% area) of pressure-outlet 27.
        Stabilizing pressure coupled to enhance linear solver robustness.
    66  1.2353e-01  2.9358e-04  1.3632e-04  2.2183e-04  2.8539e-08  1.8213e-04  1.8213e-04  0:14:10   84

 Reversed flow on 660 faces (70.5% area) of pressure-outlet 27.
        Stabilizing pressure coupled to enhance linear solver robustness.

  iter  continuity  x-velocity  y-velocity  z-velocity      energy         h2o          o2     time/iter
    67  1.2234e-01  2.9155e-04  1.3357e-04  2.1957e-04  2.7542e-08  1.7623e-04  1.7623e-04  0:14:48   83

 Reversed flow on 660 faces (68.2% area) of pressure-outlet 27.
        Stabilizing pressure coupled to enhance linear solver robustness.
    68  1.2112e-01  2.8724e-04  1.3138e-04  2.1551e-04  2.6655e-08  1.7341e-04  1.7341e-04  0:15:31   82

 Reversed flow on 663 faces (69.6% area) of pressure-outlet 27.
    69  1.2002e-01  2.8644e-04  1.3093e-04  2.1355e-04  2.6232e-08  1.7352e-04  1.7352e-04  0:13:37   81

 Reversed flow on 668 faces (69.7% area) of pressure-outlet 27.
    70  1.2190e-01  2.9141e-04  1.3505e-04  2.1507e-04  2.5879e-08  1.7576e-04  1.7576e-04  0:12:05   80

 Reversed flow on 674 faces (69.9% area) of pressure-outlet 27.
        Stabilizing pressure coupled to enhance linear solver robustness.
    71  1.2343e-01  2.9320e-04  1.3657e-04  2.1610e-04  2.6083e-08  1.7797e-04  1.7797e-04  0:13:14   79

 Reversed flow on 676 faces (70.0% area) of pressure-outlet 27.
        Stabilizing pressure coupled to enhance linear solver robustness.
    72  1.2257e-01  2.9366e-04  1.3454e-04  2.1632e-04  2.6178e-08  1.7884e-04  1.7884e-04  0:14:06   78

 Reversed flow on 676 faces (69.0% area) of pressure-outlet 27.
        Stabilizing pressure coupled to enhance linear solver robustness.
    73  1.2193e-01  2.9154e-04  1.3315e-04  2.1659e-04  2.6367e-08  1.7958e-04  1.7958e-04  0:14:44   77

 Reversed flow on 681 faces (70.6% area) of pressure-outlet 27.
        Stabilizing pressure coupled to enhance linear solver robustness.
    74  1.2095e-01  2.8637e-04  1.3041e-04  2.1404e-04  2.6259e-08  1.8041e-04  1.8041e-04  0:15:10   76

 Reversed flow on 682 faces (69.5% area) of pressure-outlet 27.
    75  1.1958e-01  2.8279e-04  1.2873e-04  2.1268e-04  2.6302e-08  1.8535e-04  1.8535e-04  0:12:59   75

 Reversed flow on 685 faces (71.6% area) of pressure-outlet 27.
    76  1.2051e-01  2.8516e-04  1.3125e-04  2.1469e-04  2.7111e-08  1.9447e-04  1.9447e-04  0:11:29   74

 Reversed flow on 684 faces (71.2% area) of pressure-outlet 27.
        Stabilizing pressure coupled to enhance linear solver robustness.
    77  1.2206e-01  2.8545e-04  1.3286e-04  2.1673e-04  2.7613e-08  2.0290e-04  2.0290e-04  0:12:28   73

 Reversed flow on 685 faces (70.8% area) of pressure-outlet 27.
        Stabilizing pressure coupled to enhance linear solver robustness.

  iter  continuity  x-velocity  y-velocity  z-velocity      energy         h2o          o2     time/iter
    78  1.2052e-01  2.8500e-04  1.3062e-04  2.1742e-04  2.8115e-08  2.0524e-04  2.0524e-04  0:13:12   72

 Reversed flow on 683 faces (70.6% area) of pressure-outlet 27.
        Stabilizing pressure coupled to enhance linear solver robustness.
    79  1.1968e-01  2.8199e-04  1.2954e-04  2.1709e-04  2.8654e-08  2.0817e-04  2.0817e-04  0:13:43   71

 Reversed flow on 684 faces (71.9% area) of pressure-outlet 27.
    80  1.1892e-01  2.7960e-04  1.2859e-04  2.1547e-04  2.9293e-08  2.0850e-04  2.0850e-04  0:11:45   70

 Reversed flow on 683 faces (71.7% area) of pressure-outlet 27.
    81  1.2008e-01  2.8209e-04  1.3163e-04  2.1701e-04  3.0234e-08  2.0968e-04  2.0968e-04  0:10:25   69

 Reversed flow on 682 faces (71.6% area) of pressure-outlet 27.
    82  1.2223e-01  2.8326e-04  1.3462e-04  2.1824e-04  3.1090e-08  2.1510e-04  2.1510e-04  0:09:07   68

 Reversed flow on 682 faces (71.6% area) of pressure-outlet 27.
        Stabilizing pressure coupled to enhance linear solver robustness.
    83  1.2467e-01  2.8496e-04  1.3707e-04  2.1928e-04  3.1509e-08  2.1469e-04  2.1469e-04  0:09:52   67

 Reversed flow on 678 faces (70.4% area) of pressure-outlet 27.
        Stabilizing pressure coupled to enhance linear solver robustness.
    84  1.2360e-01  2.8042e-04  1.3252e-04  2.1440e-04  3.1374e-08  2.1400e-04  2.1400e-04  0:10:52   66

 Reversed flow on 679 faces (70.6% area) of pressure-outlet 27.
        Stabilizing pressure coupled to enhance linear solver robustness.
    85  1.2216e-01  2.7930e-04  1.3190e-04  2.1434e-04  3.0678e-08  2.0826e-04  2.0826e-04  0:11:35   65

 Reversed flow on 677 faces (70.4% area) of pressure-outlet 27.
    86  1.2138e-01  2.7669e-04  1.3049e-04  2.1352e-04  2.9729e-08  2.0501e-04  2.0501e-04  0:10:12   64

 Reversed flow on 679 faces (70.8% area) of pressure-outlet 27.
    87  1.2308e-01  2.8128e-04  1.3451e-04  2.1628e-04  2.9184e-08  2.0145e-04  2.0145e-04  0:08:52   63

 Reversed flow on 680 faces (70.8% area) of pressure-outlet 27.
        Stabilizing pressure coupled to enhance linear solver robustness.
    88  1.2374e-01  2.7982e-04  1.3424e-04  2.1636e-04  2.8871e-08  1.9925e-04  1.9925e-04  0:09:53   62

 Reversed flow on 681 faces (70.0% area) of pressure-outlet 27.
        Stabilizing pressure coupled to enhance linear solver robustness.

  iter  continuity  x-velocity  y-velocity  z-velocity      energy         h2o          o2     time/iter
    89  1.2125e-01  2.7623e-04  1.3051e-04  2.1336e-04  2.8326e-08  1.9681e-04  1.9681e-04  0:10:25   61

 Reversed flow on 679 faces (68.4% area) of pressure-outlet 27.
        Stabilizing pressure coupled to enhance linear solver robustness.
    90  1.1920e-01  2.7059e-04  1.2711e-04  2.0913e-04  2.7359e-08  1.9344e-04  1.9344e-04  0:11:00   60

 Reversed flow on 677 faces (66.6% area) of pressure-outlet 27.
        Stabilizing pressure coupled to enhance linear solver robustness.
    91  1.1742e-01  2.6515e-04  1.2450e-04  2.0533e-04  2.6481e-08  1.9040e-04  1.9040e-04  0:11:24   59

 Reversed flow on 677 faces (66.6% area) of pressure-outlet 27.
    92  1.1571e-01  2.6224e-04  1.2282e-04  2.0310e-04  2.5653e-08  1.8636e-04  1.8636e-04  0:09:56   58

 Reversed flow on 679 faces (66.4% area) of pressure-outlet 27.
    93  1.1707e-01  2.6433e-04  1.2533e-04  2.0350e-04  2.5248e-08  1.8543e-04  1.8543e-04  0:08:46   57

 Reversed flow on 680 faces (65.9% area) of pressure-outlet 27.
        Stabilizing pressure coupled to enhance linear solver robustness.
    94  1.1778e-01  2.6457e-04  1.2533e-04  2.0380e-04  2.4649e-08  1.8181e-04  1.8181e-04  0:09:30   56

 Reversed flow on 676 faces (64.6% area) of pressure-outlet 27.
        Stabilizing pressure coupled to enhance linear solver robustness.
    95  1.1554e-01  2.6469e-04  1.2303e-04  2.0371e-04  2.4077e-08  1.7850e-04  1.7850e-04  0:09:51   55

 Reversed flow on 676 faces (64.5% area) of pressure-outlet 27.
        Stabilizing pressure coupled to enhance linear solver robustness.
    96  1.1388e-01  2.5805e-04  1.2005e-04  2.0003e-04  2.3412e-08  1.7672e-04  1.7672e-04  0:10:15   54

 Reversed flow on 675 faces (63.4% area) of pressure-outlet 27.
        Stabilizing pressure coupled to enhance linear solver robustness.
    97  1.1235e-01  2.6072e-04  1.2140e-04  2.0258e-04  2.3053e-08  1.7781e-04  1.7781e-04  0:10:31   53

 Reversed flow on 674 faces (63.3% area) of pressure-outlet 27.
    98  1.1184e-01  2.5843e-04  1.2095e-04  2.0040e-04  2.3125e-08  1.7961e-04  1.7961e-04  0:08:57   52

 Reversed flow on 674 faces (62.7% area) of pressure-outlet 27.
    99  1.1450e-01  2.6514e-04  1.2641e-04  2.0381e-04  2.3641e-08  1.8233e-04  1.8233e-04  0:07:53   51

 Reversed flow on 675 faces (63.3% area) of pressure-outlet 27.
        Stabilizing pressure coupled to enhance linear solver robustness.

  iter  continuity  x-velocity  y-velocity  z-velocity      energy         h2o          o2     time/iter
   100  1.1657e-01  2.6978e-04  1.2949e-04  2.0609e-04  2.3724e-08  1.8240e-04  1.8240e-04  0:08:41   50

 Reversed flow on 675 faces (63.3% area) of pressure-outlet 27.
        Stabilizing pressure coupled to enhance linear solver robustness.
   101  1.1544e-01  2.6899e-04  1.2707e-04  2.0415e-04  2.3892e-08  1.7946e-04  1.7946e-04  0:08:56   49

 Reversed flow on 674 faces (64.1% area) of pressure-outlet 27.
        Stabilizing pressure coupled to enhance linear solver robustness.
   102  1.1432e-01  2.6484e-04  1.2503e-04  2.0120e-04  2.3642e-08  1.7610e-04  1.7610e-04  0:09:14   48

 Reversed flow on 673 faces (63.9% area) of pressure-outlet 27.
        Stabilizing pressure coupled to enhance linear solver robustness.
   103  1.1358e-01  2.6508e-04  1.2436e-04  1.9982e-04  2.3460e-08  1.7384e-04  1.7384e-04  0:09:26   47

 Reversed flow on 675 faces (64.4% area) of pressure-outlet 27.
   104  1.1290e-01  2.6443e-04  1.2375e-04  1.9913e-04  2.3544e-08  1.7608e-04  1.7608e-04  0:08:09   46

 Reversed flow on 677 faces (64.9% area) of pressure-outlet 27.
   105  1.1533e-01  2.7049e-04  1.2783e-04  2.0252e-04  2.3887e-08  1.8009e-04  1.8009e-04  0:07:08   45

 Reversed flow on 677 faces (65.5% area) of pressure-outlet 27.
        Stabilizing pressure coupled to enhance linear solver robustness.
   106  1.1657e-01  2.7080e-04  1.2868e-04  2.0365e-04  2.3838e-08  1.8173e-04  1.8173e-04  0:07:38   44

 Reversed flow on 676 faces (65.3% area) of pressure-outlet 27.
        Stabilizing pressure coupled to enhance linear solver robustness.
   107  1.1511e-01  2.6931e-04  1.2586e-04  2.0320e-04  2.3272e-08  1.7660e-04  1.7660e-04  0:07:58   43

 Reversed flow on 677 faces (66.0% area) of pressure-outlet 27.
        Stabilizing pressure coupled to enhance linear solver robustness.
   108  1.1385e-01  2.6467e-04  1.2309e-04  2.0066e-04  2.2335e-08  1.7032e-04  1.7032e-04  0:08:11   42

 Reversed flow on 679 faces (66.2% area) of pressure-outlet 27.
        Stabilizing pressure coupled to enhance linear solver robustness.
   109  1.1254e-01  2.6262e-04  1.2189e-04  2.0079e-04  2.1430e-08  1.6451e-04  1.6451e-04  0:08:18   41

 Reversed flow on 680 faces (66.3% area) of pressure-outlet 27.
   110  1.1177e-01  2.6204e-04  1.2175e-04  2.0133e-04  2.0930e-08  1.6167e-04  1.6167e-04  0:07:01   40

 Reversed flow on 677 faces (66.1% area) of pressure-outlet 27.

  iter  continuity  x-velocity  y-velocity  z-velocity      energy         h2o          o2     time/iter
   111  1.1281e-01  2.6475e-04  1.2449e-04  2.0423e-04  2.0753e-08  1.6147e-04  1.6147e-04  0:06:07   39

 Reversed flow on 680 faces (66.9% area) of pressure-outlet 27.
        Stabilizing pressure coupled to enhance linear solver robustness.
   112  1.1425e-01  2.6517e-04  1.2540e-04  2.0588e-04  2.0615e-08  1.6204e-04  1.6204e-04  0:06:40   38

 Reversed flow on 679 faces (67.5% area) of pressure-outlet 27.
        Stabilizing pressure coupled to enhance linear solver robustness.
   113  1.1331e-01  2.6419e-04  1.2309e-04  2.0422e-04  2.0277e-08  1.6217e-04  1.6217e-04  0:06:48   37

 Reversed flow on 678 faces (68.4% area) of pressure-outlet 27.
   114  1.1291e-01  2.6206e-04  1.2180e-04  2.0252e-04  1.9979e-08  1.6363e-04  1.6363e-04  0:05:46   36

 Reversed flow on 681 faces (69.9% area) of pressure-outlet 27.
        Stabilizing pressure coupled to enhance linear solver robustness.
   115  1.1538e-01  2.6572e-04  1.2463e-04  2.0284e-04  2.0151e-08  1.6577e-04  1.6577e-04  0:06:07   35

 Reversed flow on 680 faces (70.8% area) of pressure-outlet 27.
        Stabilizing pressure coupled to enhance linear solver robustness.
   116  1.1406e-01  2.6404e-04  1.2282e-04  2.0054e-04  2.0344e-08  1.6375e-04  1.6375e-04  0:06:21   34

 Reversed flow on 681 faces (70.8% area) of pressure-outlet 27.
   117  1.1276e-01  2.5878e-04  1.2037e-04  1.9648e-04  2.0379e-08  1.6264e-04  1.6264e-04  0:05:29   33

 Reversed flow on 680 faces (70.4% area) of pressure-outlet 27.
        Stabilizing pressure coupled to enhance linear solver robustness.
   118  1.1394e-01  2.6104e-04  1.2361e-04  1.9741e-04  2.0618e-08  1.6306e-04  1.6306e-04  0:05:45   32

 Reversed flow on 679 faces (70.7% area) of pressure-outlet 27.
        Stabilizing pressure coupled to enhance linear solver robustness.
   119  1.1256e-01  2.6036e-04  1.2305e-04  1.9747e-04  2.1073e-08  1.6646e-04  1.6646e-04  0:05:48   31

 Reversed flow on 682 faces (71.1% area) of pressure-outlet 27.
        Stabilizing pressure coupled to enhance linear solver robustness.
   120  1.1134e-01  2.5461e-04  1.2067e-04  1.9428e-04  2.1312e-08  1.6930e-04  1.6930e-04  0:05:53   30

 Reversed flow on 681 faces (70.6% area) of pressure-outlet 27.
        Stabilizing pressure coupled to enhance linear solver robustness.
   121  1.1030e-01  2.5498e-04  1.2065e-04  1.9474e-04  2.1666e-08  1.7153e-04  1.7153e-04  0:05:54   29

 Reversed flow on 682 faces (71.1% area) of pressure-outlet 27.

  iter  continuity  x-velocity  y-velocity  z-velocity      energy         h2o          o2     time/iter
   122  1.0968e-01  2.5265e-04  1.1926e-04  1.9425e-04  2.2004e-08  1.7576e-04  1.7576e-04  0:04:56   28

 Reversed flow on 682 faces (72.1% area) of pressure-outlet 27.
        Stabilizing pressure coupled to enhance linear solver robustness.
   123  1.1127e-01  2.5636e-04  1.2173e-04  1.9728e-04  2.2388e-08  1.7926e-04  1.7926e-04  0:05:04   27

 Reversed flow on 679 faces (70.2% area) of pressure-outlet 27.
        Stabilizing pressure coupled to enhance linear solver robustness.
   124  1.1059e-01  2.5503e-04  1.2088e-04  1.9688e-04  2.2871e-08  1.8316e-04  1.8316e-04  0:05:02   26

 Reversed flow on 683 faces (70.6% area) of pressure-outlet 27.
   125  1.1001e-01  2.5284e-04  1.1983e-04  1.9511e-04  2.2993e-08  1.8437e-04  1.8437e-04  0:04:17   25

 Reversed flow on 680 faces (68.7% area) of pressure-outlet 27.
        Stabilizing pressure coupled to enhance linear solver robustness.
   126  1.1195e-01  2.5565e-04  1.2297e-04  1.9592e-04  2.2993e-08  1.8355e-04  1.8355e-04  0:04:25   24

 Reversed flow on 684 faces (69.2% area) of pressure-outlet 27.
        Stabilizing pressure coupled to enhance linear solver robustness.
   127  1.1096e-01  2.5319e-04  1.2136e-04  1.9461e-04  2.2788e-08  1.8175e-04  1.8175e-04  0:04:27   23

 Reversed flow on 685 faces (69.3% area) of pressure-outlet 27.
   128  1.1007e-01  2.5054e-04  1.1947e-04  1.9182e-04  2.3123e-08  1.8301e-04  1.8301e-04  0:03:47   22

 Reversed flow on 686 faces (68.9% area) of pressure-outlet 27.
        Stabilizing pressure coupled to enhance linear solver robustness.
   129  1.1086e-01  2.5219e-04  1.2107e-04  1.9341e-04  2.3163e-08  1.8581e-04  1.8581e-04  0:03:52   21

 Reversed flow on 685 faces (69.3% area) of pressure-outlet 27.
        Stabilizing pressure coupled to enhance linear solver robustness.
   130  1.0943e-01  2.5191e-04  1.1970e-04  1.9342e-04  2.3263e-08  1.8447e-04  1.8447e-04  0:03:49   20

 Reversed flow on 684 faces (69.0% area) of pressure-outlet 27.
        Stabilizing pressure coupled to enhance linear solver robustness.
   131  1.0785e-01  2.4629e-04  1.1726e-04  1.9022e-04  2.2769e-08  1.8031e-04  1.8031e-04  0:03:47   19

 Reversed flow on 684 faces (68.9% area) of pressure-outlet 27.
        Stabilizing pressure coupled to enhance linear solver robustness.
   132  1.0683e-01  2.4425e-04  1.1682e-04  1.8945e-04  2.2695e-08  1.7661e-04  1.7661e-04  0:03:42   18

 Reversed flow on 684 faces (68.9% area) of pressure-outlet 27.

  iter  continuity  x-velocity  y-velocity  z-velocity      energy         h2o          o2     time/iter
   133  1.0637e-01  2.4448e-04  1.1773e-04  1.9020e-04  2.2897e-08  1.7703e-04  1.7703e-04  0:03:02   17

 Reversed flow on 686 faces (69.6% area) of pressure-outlet 27.
   134  1.0957e-01  2.4897e-04  1.2229e-04  1.9282e-04  2.3345e-08  1.8022e-04  1.8022e-04  0:02:33   16

 Reversed flow on 687 faces (68.9% area) of pressure-outlet 27.
        Stabilizing pressure coupled to enhance linear solver robustness.
   135  1.1118e-01  2.5054e-04  1.2418e-04  1.9465e-04  2.4068e-08  1.8456e-04  1.8456e-04  0:02:37   15

 Reversed flow on 683 faces (69.1% area) of pressure-outlet 27.
        Stabilizing pressure coupled to enhance linear solver robustness.
   136  1.0994e-01  2.4963e-04  1.2198e-04  1.9364e-04  2.4937e-08  1.8698e-04  1.8698e-04  0:02:33   14

 Reversed flow on 685 faces (70.6% area) of pressure-outlet 27.
        Stabilizing pressure coupled to enhance linear solver robustness.
   137  1.0921e-01  2.4704e-04  1.2044e-04  1.9238e-04  2.6149e-08  1.9157e-04  1.9157e-04  0:02:35   13

 Reversed flow on 683 faces (70.5% area) of pressure-outlet 27.
        Stabilizing pressure coupled to enhance linear solver robustness.
   138  1.0880e-01  2.5002e-04  1.2007e-04  1.9384e-04  2.7622e-08  2.0085e-04  2.0085e-04  0:02:31   12

 Reversed flow on 678 faces (69.7% area) of pressure-outlet 27.
   139  1.0814e-01  2.4738e-04  1.1845e-04  1.9135e-04  2.8343e-08  2.0705e-04  2.0705e-04  0:01:59   11

 Reversed flow on 678 faces (70.1% area) of pressure-outlet 27.
   140  1.0875e-01  2.4882e-04  1.1970e-04  1.9229e-04  2.9664e-08  2.1776e-04  2.1776e-04  0:01:37   10

 Reversed flow on 677 faces (70.1% area) of pressure-outlet 27.
        Stabilizing pressure coupled to enhance linear solver robustness.
   141  1.0981e-01  2.4923e-04  1.2012e-04  1.9189e-04  2.9761e-08  2.1904e-04  2.1904e-04  0:01:35    9

 Reversed flow on 677 faces (69.6% area) of pressure-outlet 27.
        Stabilizing pressure coupled to enhance linear solver robustness.
   142  1.0813e-01  2.4847e-04  1.1677e-04  1.9062e-04  2.9479e-08  2.1568e-04  2.1568e-04  0:01:28    8

 Reversed flow on 676 faces (70.1% area) of pressure-outlet 27.
        Stabilizing pressure coupled to enhance linear solver robustness.
   143  1.0638e-01  2.4233e-04  1.1319e-04  1.8531e-04  2.8596e-08  2.0961e-04  2.0961e-04  0:01:21    7

 Reversed flow on 678 faces (70.4% area) of pressure-outlet 27.
        Stabilizing pressure coupled to enhance linear solver robustness.

  iter  continuity  x-velocity  y-velocity  z-velocity      energy         h2o          o2     time/iter
   144  1.0429e-01  2.4169e-04  1.1223e-04  1.8540e-04  2.7900e-08  2.0874e-04  2.0874e-04  0:01:15    6

 Reversed flow on 674 faces (69.8% area) of pressure-outlet 27.
   145  1.0375e-01  2.4257e-04  1.1244e-04  1.8657e-04  2.7052e-08  2.0195e-04  2.0195e-04  0:00:55    5

 Reversed flow on 675 faces (66.9% area) of pressure-outlet 27.
   146  1.0578e-01  2.4422e-04  1.1557e-04  1.8793e-04  2.6614e-08  1.9928e-04  1.9928e-04  0:00:38    4

 Reversed flow on 676 faces (66.9% area) of pressure-outlet 27.
        Stabilizing pressure coupled to enhance linear solver robustness.
   147  1.0749e-01  2.4516e-04  1.1738e-04  1.8931e-04  2.5980e-08  1.9481e-04  1.9481e-04  0:00:31    3

 Reversed flow on 677 faces (67.2% area) of pressure-outlet 27.
        Stabilizing pressure coupled to enhance linear solver robustness.
   148  1.0615e-01  2.4418e-04  1.1551e-04  1.8725e-04  2.5186e-08  1.8841e-04  1.8841e-04  0:00:22    2

 Reversed flow on 674 faces (67.0% area) of pressure-outlet 27.
        Stabilizing pressure coupled to enhance linear solver robustness.
   149  1.0494e-01  2.3914e-04  1.1380e-04  1.8486e-04  2.4622e-08  1.8498e-04  1.8498e-04  0:00:11    1

 Reversed flow on 671 faces (66.4% area) of pressure-outlet 27.
        Stabilizing pressure coupled to enhance linear solver robustness.
   150  1.0400e-01  2.3541e-04  1.1232e-04  1.8192e-04  2.4664e-08  1.8326e-04  1.8326e-04  0:00:00    0

Calculation complete.
(cx-gui-do cx-activate-item "Information*OK")
(cx-use-window-id 51)
(cx-set-camera-relative '(-0.0164326 0.0108988 -0.0205208) '(0 0 0) '(-0.237508 -0.691516 -0.17516) 0 0)
(cx-use-window-id 51)
(cx-set-camera-relative '(0.00342627 -0.00819323 0.0229658) '(0 0 0) '(0.0998159 0.557957 0.160967) 0 0)
(cx-gui-do cx-set-list-tree-selections "NavigationPane*Frame2*Table1*List_Tree2" (list "Results|Graphics|Contours"))
(cx-gui-do cx-set-list-tree-selections "NavigationPane*Frame2*Table1*List_Tree2" (list "Results|Graphics|Contours"))
(cx-gui-do cx-set-list-tree-selections "NavigationPane*Frame2*Table1*List_Tree2" (list "Results|Graphics|Contours"))
(cx-gui-do cx-set-list-tree-selections "NavigationPane*Frame2*Table1*List_Tree2" (list "Results|Graphics|Contours"))
(cx-gui-do cx-activate-item "NavigationPane*Frame2*Table1*List_Tree2")
(cx-gui-do cx-set-list-tree-selections "NavigationPane*Frame2*Table1*List_Tree2" (list "Results|Graphics|Contours"))
(cx-gui-do cx-set-list-selections "Contours*Table1*Frame3*Frame2*List2(Surfaces)" '( 0))
(cx-gui-do cx-activate-item "Contours*Table1*Frame3*Frame2*List2(Surfaces)")
(cx-gui-do cx-set-list-selections "Contours*Table1*Frame3*Frame2*List2(Surfaces)" '( 0 1))
(cx-gui-do cx-activate-item "Contours*Table1*Frame3*Frame2*List2(Surfaces)")
(cx-gui-do cx-set-list-selections "Contours*Table1*Frame3*Frame2*List2(Surfaces)" '( 0 1 2))
(cx-gui-do cx-activate-item "Contours*Table1*Frame3*Frame2*List2(Surfaces)")
(cx-gui-do cx-set-list-selections "Contours*Table1*Frame3*Frame2*List2(Surfaces)" '( 0 1 2 5))
(cx-gui-do cx-activate-item "Contours*Table1*Frame3*Frame2*List2(Surfaces)")
(cx-gui-do cx-activate-item "Contours*PanelButtons*PushButton1(OK)")
(cx-use-window-id 51)
(cx-use-window-id 51)
(cx-set-camera-relative '(-0.0252151 0.0122571 -0.0327825) '(0 0 0) '(0.0472164 -0.667944 -0.287326) 0 0)
(cx-use-window-id 51)
(cx-set-camera-relative '(0.020175 -0.0143754 0.0459113) '(0 0 0) '(0.496762 0.690656 0.00421023) 0 0)
(cx-use-window-id 51)
(cx-set-camera-relative '(-0.0441806 0.0357021 -0.101101) '(0 0 0) '(0.607896 -0.351563 -0.0247347) 0 0)
(cx-use-window-id 51)
(cx-set-camera-relative '(-0.0062762 -0.00890186 0.0161123) '(0 0 0) '(-0.153016 0.432587 0.181059) 0 0)
(cx-use-window-id 51)
(cx-set-camera-relative '(0.0145496 0.0253815 -0.0255287) '(0 0 0) '(0.148961 -0.440014 -0.18575) 0 0)
(cx-use-window-id 51)
(cx-set-camera-relative '(-0.0115121 -0.0121068 0.0166299) '(0 0 0) '(-0.193243 0.499834 0.229843) 0 0)
(cx-use-window-id 51)
(cx-set-camera-relative '(0.0134251 0.0225856 -0.0328201) '(0 0 0) '(0.197309 -0.393844 -0.189109) 0 0)
(cx-use-window-id 51)
(cx-set-camera-relative '(0.00305912 0.00124581 -0.00333358) '(0 0 0) '(0.0475851 -0.189198 -0.0268281) 0 0)
(cx-use-window-id 51)
(cx-set-camera-relative '(0.00271062 0.000342708 -0.00246274) '(0 0 0) '(0.0096761 -0.160587 -0.00779372) 0 0)
(cx-use-window-id 51)
(cx-set-camera-relative '(-0.00261871 -0.000352822 0.00283695) '(0 0 0) '(-0.0205848 0.170676 0.00231814) 0 0)
(cx-use-window-id 51)
(cx-set-camera-relative '(0.00257839 0.000261948 -0.000262657) '(0 0 0) '(0.00949138 -0.10675 -0.0079689) 0 0)
(cx-use-window-id 51)
(cx-set-camera-relative '(-0.0494947 -0.0341987 0.0827019) '(0 0 0) '(-0.0818717 0.523372 0.167654) 0 0)
(cx-use-window-id 51)
(cx-set-camera-relative '(-0.0162361 -0.0203551 0.0108201) '(0 0 0) '(-0.181558 0.295073 0.278151) 0 0)
(cx-use-window-id 51)
(cx-set-camera-relative '(0.0557467 0.0473149 -0.0766765) '(0 0 0) '(0.315149 -0.759299 -0.401712) 0 0)
(cx-gui-do cx-activate-item "Contours*PanelButtons*PushButton2(Cancel)")
(cx-gui-do cx-activate-item "Run Calculation*Table1*Table5(Solution Processing)*Table6*PushButton1(Data File Quantities)")
(cx-gui-do cx-activate-item "Data File Quantities*PanelButtons*PushButton2(Cancel)")
(cx-gui-do cx-activate-item "Run Calculation*Table1*Table6(Solution Advancement)*Table1*PushButton1(Calculate)")


  iter  continuity  x-velocity  y-velocity  z-velocity      energy         h2o          o2     time/iter
   150  1.0400e-01  2.3541e-04  1.1232e-04  1.8192e-04  2.4664e-08  1.8326e-04  1.8326e-04  0:29:47  150

 Reversed flow on 671 faces (66.5% area) of pressure-outlet 27.
   151  1.0304e-01  2.3341e-04  1.1179e-04  1.8111e-04  2.4121e-08  1.8149e-04  1.8149e-04  0:26:09  149

 Reversed flow on 676 faces (67.3% area) of pressure-outlet 27.
   152  1.0464e-01  2.3696e-04  1.1557e-04  1.8344e-04  2.4314e-08  1.7892e-04  1.7892e-04  0:22:45  148

 Reversed flow on 676 faces (68.0% area) of pressure-outlet 27.
        Stabilizing pressure coupled to enhance linear solver robustness.
   153  1.0565e-01  2.3801e-04  1.1665e-04  1.8497e-04  2.3578e-08  1.7134e-04  1.7134e-04  0:24:56  147

 Reversed flow on 683 faces (69.3% area) of pressure-outlet 27.
        Stabilizing pressure coupled to enhance linear solver robustness.
   154  1.0443e-01  2.3687e-04  1.1464e-04  1.8434e-04  2.2613e-08  1.6209e-04  1.6209e-04  0:25:39  146

 Reversed flow on 682 faces (69.8% area) of pressure-outlet 27.
        Stabilizing pressure coupled to enhance linear solver robustness.
   155  1.0293e-01  2.3247e-04  1.1246e-04  1.8174e-04  2.1337e-08  1.5421e-04  1.5421e-04  0:26:40  145

 Reversed flow on 683 faces (70.2% area) of pressure-outlet 27.
        Stabilizing pressure coupled to enhance linear solver robustness.
   156  1.0188e-01  2.2967e-04  1.1134e-04  1.8009e-04  2.0374e-08  1.4914e-04  1.4914e-04  0:27:54  144

 Reversed flow on 683 faces (69.7% area) of pressure-outlet 27.
        Stabilizing pressure coupled to enhance linear solver robustness.
   157  1.0133e-01  2.2874e-04  1.1145e-04  1.7927e-04  1.9619e-08  1.4791e-04  1.4791e-04  0:29:19  143

 Reversed flow on 681 faces (69.3% area) of pressure-outlet 27.
   158  1.0169e-01  2.3327e-04  1.1334e-04  1.8260e-04  1.9375e-08  1.5142e-04  1.5142e-04  0:25:39  142

 Reversed flow on 678 faces (69.2% area) of pressure-outlet 27.
   159  1.0413e-01  2.3536e-04  1.1579e-04  1.8291e-04  1.9335e-08  1.5456e-04  1.5456e-04  0:22:16  141

 Reversed flow on 676 faces (70.4% area) of pressure-outlet 27.
        Stabilizing pressure coupled to enhance linear solver robustness.
   160  1.0585e-01  2.3598e-04  1.1697e-04  1.8273e-04  1.9322e-08  1.5792e-04  1.5792e-04  0:24:13  140

 Reversed flow on 679 faces (71.3% area) of pressure-outlet 27.
        Stabilizing pressure coupled to enhance linear solver robustness.

  iter  continuity  x-velocity  y-velocity  z-velocity      energy         h2o          o2     time/iter
   161  1.0506e-01  2.3665e-04  1.1572e-04  1.8132e-04  1.9143e-08  1.5820e-04  1.5820e-04  0:25:15  139

 Reversed flow on 684 faces (71.7% area) of pressure-outlet 27.
        Stabilizing pressure coupled to enhance linear solver robustness.
   162  1.0416e-01  2.3347e-04  1.1425e-04  1.7915e-04  1.8838e-08  1.5543e-04  1.5543e-04  0:26:30  138

 Reversed flow on 682 faces (71.1% area) of pressure-outlet 27.
   163  1.0326e-01  2.3119e-04  1.1296e-04  1.7729e-04  1.8879e-08  1.5466e-04  1.5466e-04  0:23:20  137

 Reversed flow on 681 faces (71.0% area) of pressure-outlet 27.
   164  1.0492e-01  2.3508e-04  1.1645e-04  1.7906e-04  1.8904e-08  1.5137e-04  1.5137e-04  0:20:20  136

 Reversed flow on 678 faces (71.1% area) of pressure-outlet 27.
        Stabilizing pressure coupled to enhance linear solver robustness.
   165  1.0597e-01  2.3622e-04  1.1765e-04  1.8061e-04  1.8810e-08  1.4711e-04  1.4711e-04  0:21:06  135

 Reversed flow on 677 faces (69.1% area) of pressure-outlet 27.
        Stabilizing pressure coupled to enhance linear solver robustness.
   166  1.0430e-01  2.3103e-04  1.1373e-04  1.7636e-04  1.8728e-08  1.4672e-04  1.4672e-04  0:23:27  134

 Reversed flow on 678 faces (69.1% area) of pressure-outlet 27.
        Stabilizing pressure coupled to enhance linear solver robustness.
   167  1.0272e-01  2.3097e-04  1.1358e-04  1.7708e-04  1.8803e-08  1.4997e-04  1.4997e-04  0:24:50  133

 Reversed flow on 675 faces (67.6% area) of pressure-outlet 27.
        Stabilizing pressure coupled to enhance linear solver robustness.
   168  1.0195e-01  2.2960e-04  1.1271e-04  1.7580e-04  1.8863e-08  1.5255e-04  1.5255e-04  0:25:53  132

 Reversed flow on 675 faces (68.4% area) of pressure-outlet 27.
   169  1.0142e-01  2.2972e-04  1.1291e-04  1.7608e-04  1.9037e-08  1.5655e-04  1.5655e-04  0:22:17  131

 Reversed flow on 673 faces (66.6% area) of pressure-outlet 27.
   170  1.0309e-01  2.3482e-04  1.1653e-04  1.7955e-04  1.8923e-08  1.5861e-04  1.5861e-04  0:19:52  130

 Reversed flow on 673 faces (66.0% area) of pressure-outlet 27.
        Stabilizing pressure coupled to enhance linear solver robustness.
   171  1.0437e-01  2.3727e-04  1.1797e-04  1.8246e-04  1.8947e-08  1.6269e-04  1.6269e-04  0:21:47  129

 Reversed flow on 676 faces (66.9% area) of pressure-outlet 27.
        Stabilizing pressure coupled to enhance linear solver robustness.

  iter  continuity  x-velocity  y-velocity  z-velocity      energy         h2o          o2     time/iter
   172  1.0451e-01  2.3979e-04  1.1779e-04  1.8475e-04  1.9110e-08  1.6421e-04  1.6421e-04  0:23:16  128

 Reversed flow on 679 faces (65.1% area) of pressure-outlet 27.
        Stabilizing pressure coupled to enhance linear solver robustness.
   173  1.0476e-01  2.3985e-04  1.1783e-04  1.8534e-04  1.8883e-08  1.6197e-04  1.6197e-04  0:23:58  127

 Reversed flow on 679 faces (65.6% area) of pressure-outlet 27.
   174  1.0456e-01  2.3734e-04  1.1731e-04  1.8416e-04  1.9030e-08  1.6194e-04  1.6194e-04  0:21:08  126

 Reversed flow on 677 faces (66.2% area) of pressure-outlet 27.
   175  1.0709e-01  2.4247e-04  1.2208e-04  1.8602e-04  1.9497e-08  1.6604e-04  1.6604e-04  0:18:26  125

 Reversed flow on 679 faces (67.2% area) of pressure-outlet 27.
        Stabilizing pressure coupled to enhance linear solver robustness.
   176  1.0817e-01  2.4375e-04  1.2298e-04  1.8727e-04  1.9712e-08  1.6557e-04  1.6557e-04  0:19:35  124

 Reversed flow on 678 faces (68.0% area) of pressure-outlet 27.
[...]

 Reversed flow on 686 faces (71.0% area) of pressure-outlet 27.
   248  1.1163e-01  2.6841e-04  1.2812e-04  2.0524e-04  2.7467e-08  2.2380e-04  2.2380e-04  0:09:58   52

 Reversed flow on 688 faces (71.0% area) of pressure-outlet 27.

  iter  continuity  x-velocity  y-velocity  z-velocity      energy         h2o          o2     time/iter
   249  1.1391e-01  2.7131e-04  1.3147e-04  2.0507e-04  2.8241e-08  2.2601e-04  2.2601e-04  0:08:30   51

 Reversed flow on 685 faces (70.5% area) of pressure-outlet 27.
        Stabilizing pressure coupled to enhance linear solver robustness.
   250  1.1519e-01  2.7126e-04  1.3285e-04  2.0456e-04  2.8852e-08  2.2920e-04  2.2920e-04  0:09:00   50

 Reversed flow on 684 faces (69.1% area) of pressure-outlet 27.
        Stabilizing pressure coupled to enhance linear solver robustness.
   251  1.1505e-01  2.7031e-04  1.3199e-04  2.0345e-04  2.9420e-08  2.3186e-04  2.3186e-04  0:09:20   49

 Reversed flow on 683 faces (68.4% area) of pressure-outlet 27.
   252  1.1532e-01  2.6953e-04  1.3176e-04  2.0282e-04  2.9646e-08  2.3338e-04  2.3338e-04  0:08:07   48

 Reversed flow on 678 faces (67.7% area) of pressure-outlet 27.
   253  1.1689e-01  2.6972e-04  1.3240e-04  2.0249e-04  3.0120e-08  2.3346e-04  2.3346e-04  0:07:09   47

 Reversed flow on 678 faces (67.3% area) of pressure-outlet 27.
        Stabilizing pressure coupled to enhance linear solver robustness.
   254  1.1798e-01  2.6950e-04  1.3199e-04  2.0141e-04  3.0208e-08  2.3265e-04  2.3265e-04  0:07:44   46

 Reversed flow on 677 faces (67.5% area) of pressure-outlet 27.
        Stabilizing pressure coupled to enhance linear solver robustness.
   255  1.1606e-01  2.6797e-04  1.2887e-04  1.9969e-04  3.0271e-08  2.2953e-04  2.2953e-04  0:08:09   45

 Reversed flow on 678 faces (69.7% area) of pressure-outlet 27.
        Stabilizing pressure coupled to enhance linear solver robustness.
   256  1.1415e-01  2.6247e-04  1.2534e-04  1.9507e-04  3.0059e-08  2.2603e-04  2.2603e-04  0:08:26   44

 Reversed flow on 678 faces (69.7% area) of pressure-outlet 27.
   257  1.1173e-01  2.5854e-04  1.2321e-04  1.9176e-04  2.9951e-08  2.2487e-04  2.2487e-04  0:07:10   43

 Reversed flow on 679 faces (70.1% area) of pressure-outlet 27.
        Stabilizing pressure coupled to enhance linear solver robustness.
   258  1.1301e-01  2.6274e-04  1.2633e-04  1.9297e-04  3.0440e-08  2.2348e-04  2.2348e-04  0:07:17   42

 Reversed flow on 679 faces (70.0% area) of pressure-outlet 27.
        Stabilizing pressure coupled to enhance linear solver robustness.
   259  1.1100e-01  2.5659e-04  1.2240e-04  1.8783e-04  3.0856e-08  2.2388e-04  2.2388e-04  0:07:44   41

 Reversed flow on 677 faces (69.0% area) of pressure-outlet 27.
        Stabilizing pressure coupled to enhance linear solver robustness.

  iter  continuity  x-velocity  y-velocity  z-velocity      energy         h2o          o2     time/iter
   260  1.0926e-01  2.5768e-04  1.2186e-04  1.8767e-04  3.0625e-08  2.2356e-04  2.2356e-04  0:08:10   40

 Reversed flow on 677 faces (68.9% area) of pressure-outlet 27.
   261  1.0873e-01  2.5749e-04  1.2099e-04  1.8688e-04  2.9874e-08  2.2268e-04  2.2268e-04  0:07:01   39

 Reversed flow on 674 faces (69.7% area) of pressure-outlet 27.
        Stabilizing pressure coupled to enhance linear solver robustness.
   262  1.1094e-01  2.5899e-04  1.2302e-04  1.8659e-04  2.9287e-08  2.2177e-04  2.2177e-04  0:07:30   38

 Reversed flow on 675 faces (70.7% area) of pressure-outlet 27.
        Stabilizing pressure coupled to enhance linear solver robustness.
   263  1.0944e-01  2.5868e-04  1.2161e-04  1.8565e-04  2.8479e-08  2.1538e-04  2.1538e-04  0:07:49   37

 Reversed flow on 677 faces (71.0% area) of pressure-outlet 27.
   264  1.0794e-01  2.5481e-04  1.1943e-04  1.8307e-04  2.7633e-08  2.1190e-04  2.1190e-04  0:06:41   36

 Reversed flow on 675 faces (70.2% area) of pressure-outlet 27.
        Stabilizing pressure coupled to enhance linear solver robustness.
   265  1.0972e-01  2.5586e-04  1.2183e-04  1.8355e-04  2.6675e-08  2.0318e-04  2.0318e-04  0:06:36   35

 Reversed flow on 674 faces (69.3% area) of pressure-outlet 27.
        Stabilizing pressure coupled to enhance linear solver robustness.
   266  1.0724e-01  2.4937e-04  1.1787e-04  1.7983e-04  2.5553e-08  1.9432e-04  1.9432e-04  0:06:36   34

 Reversed flow on 672 faces (68.1% area) of pressure-outlet 27.
        Stabilizing pressure coupled to enhance linear solver robustness.
   267  1.0533e-01  2.4608e-04  1.1586e-04  1.7802e-04  2.4942e-08  1.8993e-04  1.8993e-04  0:06:40   33

 Reversed flow on 672 faces (68.6% area) of pressure-outlet 27.
        Stabilizing pressure coupled to enhance linear solver robustness.
   268  1.0376e-01  2.4679e-04  1.1526e-04  1.7872e-04  2.4713e-08  1.8723e-04  1.8723e-04  0:06:40   32

 Reversed flow on 676 faces (70.2% area) of pressure-outlet 27.
   269  1.0305e-01  2.4433e-04  1.1386e-04  1.7836e-04  2.4422e-08  1.8730e-04  1.8730e-04  0:05:35   31

 Reversed flow on 678 faces (70.3% area) of pressure-outlet 27.
   270  1.0513e-01  2.5045e-04  1.1792e-04  1.8325e-04  2.4441e-08  1.8882e-04  1.8882e-04  0:04:49   30

 Reversed flow on 677 faces (70.1% area) of pressure-outlet 27.
        Stabilizing pressure coupled to enhance linear solver robustness.

  iter  continuity  x-velocity  y-velocity  z-velocity      energy         h2o          o2     time/iter
   271  1.0731e-01  2.5294e-04  1.1930e-04  1.8630e-04  2.4412e-08  1.8989e-04  1.8989e-04  0:05:05   29

 Reversed flow on 679 faces (70.5% area) of pressure-outlet 27.
        Stabilizing pressure coupled to enhance linear solver robustness.
   272  1.0649e-01  2.5346e-04  1.1760e-04  1.8618e-04  2.4118e-08  1.8939e-04  1.8939e-04  0:05:19   28

 Reversed flow on 681 faces (70.0% area) of pressure-outlet 27.
        Stabilizing pressure coupled to enhance linear solver robustness.
   273  1.0576e-01  2.4936e-04  1.1576e-04  1.8433e-04  2.3666e-08  1.8760e-04  1.8760e-04  0:05:22   27

 Reversed flow on 678 faces (70.4% area) of pressure-outlet 27.
   274  1.0537e-01  2.4799e-04  1.1489e-04  1.8388e-04  2.3237e-08  1.9027e-04  1.9027e-04  0:04:34   26

 Reversed flow on 674 faces (70.2% area) of pressure-outlet 27.
   275  1.0805e-01  2.5446e-04  1.2026e-04  1.8759e-04  2.3228e-08  1.9269e-04  1.9269e-04  0:03:51   25

 Reversed flow on 676 faces (70.3% area) of pressure-outlet 27.
        Stabilizing pressure coupled to enhance linear solver robustness.
   276  1.1027e-01  2.5731e-04  1.2235e-04  1.9003e-04  2.3479e-08  1.9405e-04  1.9405e-04  0:04:04   24

 Reversed flow on 676 faces (70.4% area) of pressure-outlet 27.
        Stabilizing pressure coupled to enhance linear solver robustness.
   277  1.0891e-01  2.5844e-04  1.2050e-04  1.8909e-04  2.3806e-08  1.9499e-04  1.9499e-04  0:04:21   23

 Reversed flow on 673 faces (68.5% area) of pressure-outlet 27.
        Stabilizing pressure coupled to enhance linear solver robustness.
   278  1.0842e-01  2.5968e-04  1.2039e-04  1.8955e-04  2.4273e-08  1.9762e-04  1.9762e-04  0:04:35   22

 Reversed flow on 674 faces (68.4% area) of pressure-outlet 27.
   279  1.0824e-01  2.6187e-04  1.2041e-04  1.9108e-04  2.5113e-08  2.0192e-04  2.0192e-04  0:03:46   21

 Reversed flow on 673 faces (68.5% area) of pressure-outlet 27.
        Stabilizing pressure coupled to enhance linear solver robustness.
   280  1.0946e-01  2.6214e-04  1.2225e-04  1.9097e-04  2.5722e-08  2.0881e-04  2.0881e-04  0:03:49   20

 Reversed flow on 675 faces (69.1% area) of pressure-outlet 27.
        Stabilizing pressure coupled to enhance linear solver robustness.
   281  1.0849e-01  2.6019e-04  1.2197e-04  1.9073e-04  2.6306e-08  2.1071e-04  2.1071e-04  0:03:51   19

 Reversed flow on 673 faces (69.0% area) of pressure-outlet 27.

  iter  continuity  x-velocity  y-velocity  z-velocity      energy         h2o          o2     time/iter
   282  1.0757e-01  2.5482e-04  1.2071e-04  1.8725e-04  2.6600e-08  2.1245e-04  2.1245e-04  0:03:13   18

 Reversed flow on 674 faces (69.5% area) of pressure-outlet 27.
        Stabilizing pressure coupled to enhance linear solver robustness.
   283  1.0957e-01  2.5631e-04  1.2456e-04  1.8847e-04  2.7159e-08  2.1255e-04  2.1255e-04  0:03:13   17

 Reversed flow on 675 faces (69.5% area) of pressure-outlet 27.
        Stabilizing pressure coupled to enhance linear solver robustness.
   284  1.0876e-01  2.5617e-04  1.2433e-04  1.8891e-04  2.7183e-08  2.0867e-04  2.0867e-04  0:03:07   16

 Reversed flow on 674 faces (69.1% area) of pressure-outlet 27.
        Stabilizing pressure coupled to enhance linear solver robustness.
   285  1.0781e-01  2.5237e-04  1.2249e-04  1.8677e-04  2.7027e-08  2.0280e-04  2.0280e-04  0:03:02   15

 Reversed flow on 675 faces (68.3% area) of pressure-outlet 27.
   286  1.0741e-01  2.4962e-04  1.2125e-04  1.8635e-04  2.6706e-08  1.9687e-04  1.9687e-04  0:02:27   14

 Reversed flow on 677 faces (67.9% area) of pressure-outlet 27.
   287  1.0987e-01  2.5205e-04  1.2417e-04  1.8770e-04  2.6607e-08  1.9362e-04  1.9362e-04  0:02:02   13

 Reversed flow on 678 faces (69.4% area) of pressure-outlet 27.
        Stabilizing pressure coupled to enhance linear solver robustness.
   288  1.1159e-01  2.5153e-04  1.2469e-04  1.8867e-04  2.6155e-08  1.8810e-04  1.8810e-04  0:02:02   12

 Reversed flow on 681 faces (70.3% area) of pressure-outlet 27.
        Stabilizing pressure coupled to enhance linear solver robustness.
   289  1.0968e-01  2.4923e-04  1.2099e-04  1.8773e-04  2.5611e-08  1.8334e-04  1.8334e-04  0:01:58   11

 Reversed flow on 681 faces (70.2% area) of pressure-outlet 27.
        Stabilizing pressure coupled to enhance linear solver robustness.
   290  1.0788e-01  2.4342e-04  1.1730e-04  1.8550e-04  2.4870e-08  1.7922e-04  1.7922e-04  0:01:52   10

 Reversed flow on 679 faces (69.8% area) of pressure-outlet 27.
        Stabilizing pressure coupled to enhance linear solver robustness.
   291  1.0650e-01  2.4081e-04  1.1542e-04  1.8553e-04  2.4096e-08  1.7288e-04  1.7288e-04  0:01:46    9

 Reversed flow on 682 faces (70.3% area) of pressure-outlet 27.
   292  1.0505e-01  2.3884e-04  1.1389e-04  1.8430e-04  2.3432e-08  1.7040e-04  1.7040e-04  0:01:23    8

 Reversed flow on 681 faces (69.7% area) of pressure-outlet 27.

  iter  continuity  x-velocity  y-velocity  z-velocity      energy         h2o          o2     time/iter
   293  1.0650e-01  2.4139e-04  1.1700e-04  1.8681e-04  2.2912e-08  1.7050e-04  1.7050e-04  0:01:04    7

 Reversed flow on 681 faces (70.0% area) of pressure-outlet 27.
        Stabilizing pressure coupled to enhance linear solver robustness.
   294  1.0775e-01  2.4265e-04  1.1802e-04  1.8837e-04  2.2509e-08  1.7106e-04  1.7106e-04  0:00:59    6

 Reversed flow on 680 faces (71.3% area) of pressure-outlet 27.
        Stabilizing pressure coupled to enhance linear solver robustness.
   295  1.0625e-01  2.4256e-04  1.1562e-04  1.8784e-04  2.2348e-08  1.7077e-04  1.7077e-04  0:00:54    5

 Reversed flow on 681 faces (70.9% area) of pressure-outlet 27.
        Stabilizing pressure coupled to enhance linear solver robustness.
   296  1.0519e-01  2.3973e-04  1.1376e-04  1.8602e-04  2.2278e-08  1.7158e-04  1.7158e-04  0:00:45    4

 Reversed flow on 679 faces (70.7% area) of pressure-outlet 27.
        Stabilizing pressure coupled to enhance linear solver robustness.
   297  1.0490e-01  2.4276e-04  1.1427e-04  1.8688e-04  2.2147e-08  1.7266e-04  1.7266e-04  0:00:35    3

 Reversed flow on 679 faces (70.2% area) of pressure-outlet 27.
   298  1.0505e-01  2.4450e-04  1.1484e-04  1.8728e-04  2.1711e-08  1.7202e-04  1.7202e-04  0:00:20    2

 Reversed flow on 680 faces (70.2% area) of pressure-outlet 27.
        Stabilizing pressure coupled to enhance linear solver robustness.
   299  1.0766e-01  2.4937e-04  1.1894e-04  1.8933e-04  2.1583e-08  1.7019e-04  1.7019e-04  0:00:11    1

 Reversed flow on 677 faces (69.3% area) of pressure-outlet 27.
        Stabilizing pressure coupled to enhance linear solver robustness.
   300  1.0709e-01  2.4955e-04  1.1844e-04  1.8949e-04  2.1345e-08  1.6692e-04  1.6692e-04  0:00:00    0

Calculation complete.
(cx-gui-do cx-activate-item "Information*OK")
(cx-gui-do cx-set-list-tree-selections "NavigationPane*Frame2*Table1*List_Tree2" (list "Results|Graphics|Contours|contour-1"))
(cx-gui-do cx-set-list-tree-selections "NavigationPane*Frame2*Table1*List_Tree2" (list "Results|Graphics|Contours|contour-1"))
(cx-gui-do cx-activate-item "NavigationPane*Frame2*Table1*List_Tree2")
(cx-gui-do cx-set-list-tree-selections "NavigationPane*Frame2*Table1*List_Tree2" (list "Results|Graphics|Contours|contour-1"))
(cx-gui-do cx-activate-item "Contours*PanelButtons*PushButton1(OK)")
(cx-use-window-id 51)
(cx-use-window-id 51)
(cx-set-camera-relative '(-0.00642938 -0.00759299 0.0106552) '(0 0 0) '(-0.258471 0.714262 0.352354) 0 0)
(cx-use-window-id 51)
(cx-set-camera-relative '(0.000273868 0.0142203 -0.0230668) '(0 0 0) '(0.252449 -0.382295 -0.227109) 0 0)
(cx-use-window-id 51)
(cx-set-camera-relative '(-0.0250812 -0.0651905 0.037358) '(0 0 0) '(-0.642151 0.540601 0.51415) 0 0)
(cx-use-window-id 51)
(cx-set-camera-relative '(0.0160129 0.056706 -0.0275531) '(0 0 0) '(0.751936 -0.350508 -0.13969) 0 0)
(cx-gui-do cx-activate-item "Contours*PanelButtons*PushButton2(Cancel)")
(cx-gui-do cx-set-list-tree-selections "NavigationPane*Frame2*Table1*List_Tree2" (list "Results|Graphics|Pathlines"))
(cx-gui-do cx-set-list-tree-selections "NavigationPane*Frame2*Table1*List_Tree2" (list "Results|Graphics|Pathlines"))
(cx-gui-do cx-activate-item "NavigationPane*Frame2*Table1*List_Tree2")
(cx-gui-do cx-set-list-tree-selections "NavigationPane*Frame2*Table1*List_Tree2" (list "Results|Graphics|Pathlines"))
(cx-gui-do cx-set-list-selections "Pathlines*Frame4*List3(Release from Surfaces)" '( 3))
(cx-gui-do cx-activate-item "Pathlines*Frame4*List3(Release from Surfaces)")
(cx-gui-do cx-activate-item "Pathlines*PanelButtons*PushButton1(OK)")

number tracked = 900, incomplete = 900
(cx-use-window-id 51)
(cx-gui-do cx-activate-item "Pathlines*PanelButtons*PushButton2(Cancel)")
(cx-use-window-id 51)
(cx-set-camera-relative '(0.00499766 0.00307794 -0.00304333) '(0 0 0) '(0.174657 -0.365285 -0.0813228) 0 0)
(cx-use-window-id 51)
(cx-set-camera-relative '(0.00780618 0.000842556 -0.000648666) '(0 0 0) '(0.0294864 -0.293649 -0.0276839) 0 0)
(cx-use-window-id 51)
(cx-set-camera-relative '(-0.00241885 5.16884e-06 -0.00330376) '(0 0 0) '(-0.00731003 0.0425738 -0.0166568) 0 0)
(cx-use-window-id 51)
(cx-set-camera-relative '(-0.0106127 -0.00174507 0.00717573) '(0 0 0) '(-0.0401179 0.250733 0.00295374) 0 0)
(cx-use-window-id 51)
(cx-set-camera-relative '(-0.00627651 -0.00348293 0.00246172) '(0 0 0) '(-0.170499 0.348276 0.0570372) 0 0)
(cx-use-window-id 51)
(cx-set-camera-relative '(-0.00580305 -0.00501438 -0.00893398) '(0 0 0) '(-0.0847635 0.111089 0.0606186) 0 0)
(cx-use-window-id 51)
(cx-set-camera-relative '(0.00445631 0.00440743 -0.00088973) '(0 0 0) '(0.14505 -0.141704 0.0228982) 0 0)
(cx-use-window-id 51)
(cx-set-camera-relative '(0.0603938 0.0351855 -0.00581721) '(0 0 0) '(0.153106 -0.254419 0.0433516) 0 0)
(cx-gui-do cx-activate-item "MenuBar*WriteSubMenu*Case & Data...")
(cx-gui-do cx-set-file-dialog-entries "Select File" '( "cathod.cas.h5") "CFF Case/Data Files (*.cas.h5 *.dat.h5 )")
Fast-loading "E:\Ansys\Ansys.Products.2022.R1.Win64\Program Files\ANSYS Inc\v221\fluent\fluent22.1.0\\addons\afd\lib\hdfio.bin"
Done.
(cx-gui-do cx-activate-item "Question*OK")

Writing to DESKTOP-6MJKVPJ:"D:/Objects3D/fluent/fuelCell/H2BIKE/fluent/cathod.cas.h5" in NODE0 mode and compression level 1 ...
  Writing mesh ...
     1349969 cells,     1 zone  ...
     5527747 faces,     7 zones ...
     2947843 nodes,     1 zone  ...
  Done.
Done.

Writing to DESKTOP-6MJKVPJ:"D:/Objects3D/fluent/fuelCell/H2BIKE/fluent/cathod.dat.h5" in NODE0 mode and compression level 1 ...
  Writing results.
Done.
(cx-use-window-id 51)
(cx-set-camera-relative '(0.00859502 -0.00437088 -0.0256329) '(0 0 0) '(0.0381719 -0.103428 0.0303016) 0 0)
(cx-use-window-id 51)
(cx-set-camera-relative '(0.00549849 0.00131983 0.000109134) '(0 0 0) '(0.0353568 -0.149862 0.0680792) 0 0)
(cx-use-window-id 51)
(cx-set-camera-relative '(0.00137075 0.00067899 0.00221336) '(0 0 0) '(0.00648063 -0.119775 0.0347705) 0 0)
(cx-use-window-id 51)
(cx-set-camera-relative '(0.00490723 0.00283456 0.00310752) '(0 0 0) '(-0.0179127 -0.159703 0.0117309) 0 0)
(cx-use-window-id 51)
(cx-set-camera-relative '(-0.0120482 -0.00280416 0.00134794) '(0 0 0) '(-0.184064 0.803325 0.0287517) 0 0)
(cx-use-window-id 51)
(cx-set-camera-relative '(0.00900775 -0.00107801 -0.027166) '(0 0 0) '(-0.0632064 -0.00647652 0.373844) 0 0)
(cx-use-window-id 51)
(cx-set-camera-relative '(-0.00163968 0.00156744 0.00618568) '(0 0 0) '(0.0375128 -0.0671255 0.029182) 0 0)
(cx-use-window-id 51)
(cx-set-camera-relative '(0.0103818 0.00468907 0.00507815) '(0 0 0) '(0.124581 -0.323689 0.0444515) 0 0)
(cx-use-window-id 51)
(cx-set-camera-relative '(-0.0117349 -0.0076181 -0.00860805) '(0 0 0) '(-0.23951 0.48684 -0.101536) 0 0)
(cx-use-window-id 51)
(cx-set-camera-relative '(0.0337134 0.0164572 0.0152573) '(0 0 0) '(0.251241 -0.628898 0.123769) 0 0)
(cx-use-window-id 51)
(cx-set-camera-relative '(-0.00868526 -0.00318925 -0.00368325) '(0 0 0) '(-0.140677 0.486413 -0.0896113) 0 0)
(cx-use-window-id 51)
(cx-set-camera-relative '(0.0139609 0.00665667 0.0113316) '(0 0 0) '(0.14815 -0.404585 0.0507439) 0 0)
(cx-gui-do cx-set-list-tree-selections "NavigationPane*Frame2*Table1*List_Tree2" (list "Results|Graphics|Vectors"))
(cx-gui-do cx-set-list-tree-selections "NavigationPane*Frame2*Table1*List_Tree2" (list "Results|Graphics|Vectors"))
(cx-gui-do cx-activate-item "NavigationPane*Frame2*Table1*List_Tree2")
(cx-gui-do cx-set-list-tree-selections "NavigationPane*Frame2*Table1*List_Tree2" (list "Results|Graphics|Vectors"))
(cx-gui-do cx-set-list-selections "Vectors*Table1*Table3*Frame6*List2(Surfaces)" '( 2))
(cx-gui-do cx-activate-item "Vectors*Table1*Table3*Frame6*List2(Surfaces)")
(cx-gui-do cx-set-list-selections "Vectors*Table1*Table3*Frame6*List2(Surfaces)" '( 1 2))
(cx-gui-do cx-activate-item "Vectors*Table1*Table3*Frame6*List2(Surfaces)")
(cx-gui-do cx-set-list-selections "Vectors*Table1*Table3*Frame6*List2(Surfaces)" '( 0 1 2))
(cx-gui-do cx-activate-item "Vectors*Table1*Table3*Frame6*List2(Surfaces)")
(cx-gui-do cx-set-list-selections "Vectors*Table1*Table3*Frame6*List2(Surfaces)" '( 0 1 2 5))
(cx-gui-do cx-activate-item "Vectors*Table1*Table3*Frame6*List2(Surfaces)")
(cx-gui-do cx-set-list-selections "Vectors*Table1*Table3*Frame6*List2(Surfaces)" '( 0 1 2 3 5))
(cx-gui-do cx-activate-item "Vectors*Table1*Table3*Frame6*List2(Surfaces)")
(cx-gui-do cx-set-list-selections "Vectors*Table1*Table3*Frame6*List2(Surfaces)" '( 0 1 2 3 4 5))
(cx-gui-do cx-activate-item "Vectors*Table1*Table3*Frame6*List2(Surfaces)")
(cx-gui-do cx-activate-item "Vectors*PanelButtons*PushButton1(OK)")
(cx-gui-do cx-set-real-entry-list "Vectors*Table1*Frame2*Frame3*RealEntry1(Scale)" '( 0.6))
(cx-gui-do cx-activate-item "Vectors*PanelButtons*PushButton1(OK)")
(cx-gui-do cx-activate-item "Vectors*PanelButtons*PushButton2(Cancel)")
(cx-use-window-id 51)
(cx-set-camera-relative '(0.00168173 0.000114911 0.000291102) '(0 0 0) '(0.0138248 -0.178498 -0.00521624) 0 0)
(cx-use-window-id 51)
(cx-set-camera-relative '(0.000629209 -6.13974e-05 0.000174713) '(0 0 0) '(-0.0118776 -0.131999 -0.00439158) 0 0)
(cx-use-window-id 51)
(cx-set-camera-relative '(-0.000566399 0.000741895 -3.22517e-06) '(0 0 0) '(0.00830746 0.110282 0.0107603) 0 0)
(cx-use-window-id 51)
(cx-set-camera-relative '(0.00447627 -0.000239238 -0.00691776) '(0 0 0) '(-0.00106281 -0.0214733 -0.000899792) 0 0)
/exit y
(cx-gui-do cx-activate-item "Question*OK")
Auto-Transcript Stop Time:  23:46:46, 19 Dec 2023 中国标准时间 
Total Transcript Time: 1 Hour 23 Minute 5 Second.
