Auto-Transcript Start Time:  10:05:05, 19 Dec 2023 中国标准时间 
Current Directory: "D:\Objects3D\fluent\fuelCell\H2BIKE\fluent"

              Welcome to ANSYS Fluent 2022 R1

              Copyright 1987-2022 ANSYS, Inc. All Rights Reserved.
              Unauthorized use, distribution or duplication is prohibited.
              This product is subject to U.S. laws governing export and re-export.
              For full Legal Notice, see documentation.

Build Time: Nov 29 2021 12:14:46 EST  Build Id: 10213  
 
Connected License Server List:	
Host spawning Node 0 on machine "DESKTOP-6MJKVPJ" (win64).

------------------------------------------------------------------------------------------
ID    Hostname         Core  O.S.         PID    Vendor                                  
------------------------------------------------------------------------------------------
n7    DESKTOP-6MJKVPJ  8/20  Windows-x64  13732  12th Gen Intel(R) Core(TM) i7-12700H    
n6    DESKTOP-6MJKVPJ  7/20  Windows-x64  6944   12th Gen Intel(R) Core(TM) i7-12700H    
n5    DESKTOP-6MJKVPJ  6/20  Windows-x64  3596   12th Gen Intel(R) Core(TM) i7-12700H    
n4    DESKTOP-6MJKVPJ  5/20  Windows-x64  12124  12th Gen Intel(R) Core(TM) i7-12700H    
n3    DESKTOP-6MJKVPJ  4/20  Windows-x64  5868   12th Gen Intel(R) Core(TM) i7-12700H    
n2    DESKTOP-6MJKVPJ  3/20  Windows-x64  11036  12th Gen Intel(R) Core(TM) i7-12700H    
n1    DESKTOP-6MJKVPJ  2/20  Windows-x64  12072  12th Gen Intel(R) Core(TM) i7-12700H    
n0*   DESKTOP-6MJKVPJ  1/20  Windows-x64  11716  12th Gen Intel(R) Core(TM) i7-12700H    
host  DESKTOP-6MJKVPJ        Windows-x64  1332   12th Gen Intel(R) Core(TM) i7-12700H    

MPI Option Selected: intel
Selected system interconnect: default
------------------------------------------------------------------------------------------

Cleanup script file is D:\\Objects3D\\fluent\\fuelCell\\H2BIKE\\fluent\\cleanup-fluent-DESKTOP-6MJKVPJ-1332.bat
(cx-gui-do cx-activate-tab-index "NavigationPane*Frame1(TreeTab)" 0)

Meshing> 
Importing one geom object per program-controlled and one zone per body ...
    E:\\Ansys\\Ansys.Products.2022.R1.Win64\\Program Files\\ANSYS Inc\\v221\\commonfiles\\CPython\\3_7\\winx64\\Release\\python\\..\\Ansys\\TGrid\\CADReaders.py started by MelonJam on DESKTOP-6MJKVPJ winx64 on Tue Dec 19 10:05:29 2023
    using Python 3.7.11 (remotes/origin/b0b4eda9448d622fbb214539623a7f129f39e1f4-dirty:b0b4eda, Oct 18 20) [MSC v.1920 64 bit (AMD64)]
    
    using Ansys.Meshing.FieldMesher build Nov 30 2021 12:29:41 including TGLib build Nov 12 2019 13:13:16
    
    running ANSYS TGrid CADToTGridConverter ...
    setting up parameters ...
    setting up parameters done.
    running conversion ...
    converting 1 file(s) from Workbench to FLTG using output path 'D:\\Objects3D\\fluent\\fuelCell\\H2BIKE\\fluent\\FM_DESKTOP-6MJKVPJ_2792/out17029515282792.tgf'
    converting file 'cathod.scdoc' (1 of 1) from Workbench to FLTG using output path 'D:\\Objects3D\\fluent\\fuelCell\\H2BIKE\\fluent\\FM_DESKTOP-6MJKVPJ_2792'
    importing data ...
    importing meshing model from PartMgr from file 'D:/Objects3D/fluent/fuelCell/H2BIKE/fluent/cathod.scdoc' ...
    setting enclosure and symmetry processing to False
    setting transfer named selections to True
    setting named selection prefixes to ''
    setting mixed import resolution type to 'SolidAndSurface'
    setting target application to 'FluentMeshing'
    attaching to assembly ...
    attaching to assembly done in 5.715 [s]
    Warning: ?????????
    processing assembly 'D:\\Objects3D\\fluent\\fuelCell\\H2BIKE\\fluent\\cathod.scdoc' with ID 1 and reference key '<?xml version="1.0" encoding="utf-16"?>
    <IdTable xmlns:xsd="http://www.w3.org/2001/XMLSchema" xmlns:xsi="http://www.w3.org/2001/XMLSchema-instance">
      <Table>
        <Entry>
          <Text>&lt;SnippetV1 sctype="SpaceClaim.OccurrenceMoniker`1[[SpaceClaim.IEvaluation, Core]], Core"&gt;&lt;instanceMoniker sctype="SpaceClaim.BasicMoniker`1[[SpaceClaim.IInstance, Core]], Core" refId="ee081486-b71e-45ee-8b17-979c281f2922:3983" /&gt;&lt;originalMoniker sctype="SpaceClaim.BasicMoniker`1[[SpaceClaim.IEvaluation, Core]], Core" refId="ee081486-b71e-45ee-8b17-979c281f2922:3979" /&gt;&lt;/SnippetV1&gt;</Text>
          <Id>10000</Id>
          <IsExploded>false</IsExploded>
        </Entry>
      </Table>
    </IdTable>'
    length unit = [m]
    processing part 'fluid_region' with ID 3
    processing named selection 'inlet'
    processing named selection 'outlet'
    processing named selection 'wall'
    processing named selection 'boi_cur_outer'
    processing named selection 'boi_cur_inner'
    processing named selection 'boi_cur_in_out'
    processing data ...
    removing named collections of entities ...
    removing named collections of entities stopped, no named collections selected.
    analyzing feature edges ...
    detecting feature edges, feature angle = 40 [deg] ...
        Data information
            Meshing model
                Attributes:
                    'LengthUnit': '[mm]'
                Entity summary:
                    Collection: 6
                    Component : 2
                    Body      : 1
                    Shell     : 1
                    Face      : 674
                    Loop      : 722
                    Edge      : 2160
                    Vertex    : 1440
                    Surface   : 674
                    Curve     : 2160
                Tessellation summary:
                    Face facets  : 13244
                    Edge segments: 7248
                Bounding box:
                    (-75.75000000000001, 0, -23.25) x (75.75, 4, 23.25)
                Assembly component hierarchy:
                    'D:\\Objects3D\\fluent\\fuelCell\\H2BIKE\\fluent\\cathod.scdoc'
                      'fluid_region'
                NamedCollections:
                    'inlet'
                    'outlet'
                    'wall'
                    'boi_cur_outer'
                    'boi_cur_inner'
                    'boi_cur_in_out'
    
    
    exporting FLTG data to file 'D:\\Objects3D\\fluent\\fuelCell\\H2BIKE\\fluent\\FM_DESKTOP-6MJKVPJ_2792\\out17029515282792.tgf' ...
    writing face-based mesh file 'D:\\Objects3D\\fluent\\fuelCell\\H2BIKE\\fluent\\FM_DESKTOP-6MJKVPJ_2792\\out17029515282792.tgf' ...
    ======== Exported Data ========
    Entity summary:
        Object       : 1
        Object region: 7
        Zone         : 19
    
    running conversion done.
    running ANSYS TGrid CADToTGridConverter done.
    ran ANSYS TGrid CADToTGridConverter in 6.218 [s]

Reading "D:\Objects3D\fluent\fuelCell\H2BIKE\fluent\FM_DESKTOP-6MJKVPJ_2792/out17029515282792.tgf"...
Reading "D:\Objects3D\fluent\fuelCell\H2BIKE\fluent\FM_DESKTOP-6MJKVPJ_2792/out17029515282792.tgf"...
nodes: 13056
edges: 7248
faces: 13244
cells: 0
reading 13056 storage data (id 1, type 41, double precision binary).
generating pointers...done.
extracting boundary entities...
 13056 boundary nodes.
 13244 boundary faces.
 7 boundary face zones.
done.
analyzing boundary connectivity...done.

---------------- Import of cathod, consisting of one single part/object , complete. 
 
(cx-use-window-id 51)
(cx-set-camera-relative '(-10.3715 -13.1709 20.5831) '(0 0 0) '(0.199467 0.126677 0.0368688) 0 0)

Importing one geom object per program-controlled and one zone per body ...
    E:\\Ansys\\Ansys.Products.2022.R1.Win64\\Program Files\\ANSYS Inc\\v221\\commonfiles\\CPython\\3_7\\winx64\\Release\\python\\..\\Ansys\\TGrid\\CADReaders.py started by MelonJam on DESKTOP-6MJKVPJ winx64 on Tue Dec 19 10:21:23 2023
    using Python 3.7.11 (remotes/origin/b0b4eda9448d622fbb214539623a7f129f39e1f4-dirty:b0b4eda, Oct 18 20) [MSC v.1920 64 bit (AMD64)]
    
    using Ansys.Meshing.FieldMesher build Nov 30 2021 12:29:41 including TGLib build Nov 12 2019 13:13:16
    
    running ANSYS TGrid CADToTGridConverter ...
    setting up parameters ...
    setting up parameters done.
    running conversion ...
    converting 1 file(s) from Workbench to FLTG using output path 'D:\\Objects3D\\fluent\\fuelCell\\H2BIKE\\fluent\\FM_DESKTOP-6MJKVPJ_2792/out17029524822792.tgf'
    converting file 'cathod.scdoc' (1 of 1) from Workbench to FLTG using output path 'D:\\Objects3D\\fluent\\fuelCell\\H2BIKE\\fluent\\FM_DESKTOP-6MJKVPJ_2792'
    importing data ...
    importing meshing model from PartMgr from file 'D:/Objects3D/fluent/fuelCell/H2BIKE/fluent/cathod.scdoc' ...
    setting enclosure and symmetry processing to False
    setting transfer named selections to True
    setting named selection prefixes to ''
    setting mixed import resolution type to 'SolidAndSurface'
    setting target application to 'FluentMeshing'
    attaching to assembly ...
    attaching to assembly done in 5.312 [s]
    Warning: ?????????
    processing assembly 'D:\\Objects3D\\fluent\\fuelCell\\H2BIKE\\fluent\\cathod.scdoc' with ID 1 and reference key '<?xml version="1.0" encoding="utf-16"?>
    <IdTable xmlns:xsd="http://www.w3.org/2001/XMLSchema" xmlns:xsi="http://www.w3.org/2001/XMLSchema-instance">
      <Table>
        <Entry>
          <Text>&lt;SnippetV1 sctype="SpaceClaim.OccurrenceMoniker`1[[SpaceClaim.IEvaluation, Core]], Core"&gt;&lt;instanceMoniker sctype="SpaceClaim.BasicMoniker`1[[SpaceClaim.IInstance, Core]], Core" refId="ee081486-b71e-45ee-8b17-979c281f2922:3983" /&gt;&lt;originalMoniker sctype="SpaceClaim.BasicMoniker`1[[SpaceClaim.IEvaluation, Core]], Core" refId="ee081486-b71e-45ee-8b17-979c281f2922:3979" /&gt;&lt;/SnippetV1&gt;</Text>
          <Id>10000</Id>
          <IsExploded>false</IsExploded>
        </Entry>
        <Entry>
          <Text>&lt;SnippetV1 sctype="SpaceClaim.BasicMoniker`1[[SpaceClaim.IEvaluation, Core]], Core" refId="21fdd05f-be9b-4168-b7b7-98eb5af600f5:2" /&gt;</Text>
          <ExplodedBodyText>&lt;SnippetV1 sctype="SpaceClaim.BasicMoniker`1[[SpaceClaim.IEvaluation, Core]], Core" refId="aead23da-b75d-44bd-96ca-3bf784878abf:4741" /&gt;</ExplodedBodyText>
          <Id>10001</Id>
          <IsExploded>true</IsExploded>
        </Entry>
        <Entry>
          <Text>&lt;SnippetV1 sctype="SpaceClaim.BasicMoniker`1[[SpaceClaim.IEvaluation, Core]], Core" refId="21fdd05f-be9b-4168-b7b7-98eb5af600f5:2" /&gt;</Text>
          <ExplodedBodyText>&lt;SnippetV1 sctype="SpaceClaim.BasicMoniker`1[[SpaceClaim.IEvaluation, Core]], Core" refId="aead23da-b75d-44bd-96ca-3bf784878abf:9334" /&gt;</ExplodedBodyText>
          <Id>10002</Id>
          <IsExploded>true</IsExploded>
        </Entry>
        <Entry>
          <Text>&lt;SnippetV1 sctype="SpaceClaim.BasicMoniker`1[[SpaceClaim.IEvaluation, Core]], Core" refId="21fdd05f-be9b-4168-b7b7-98eb5af600f5:2" /&gt;</Text>
          <ExplodedBodyText>&lt;SnippetV1 sctype="SpaceClaim.BasicMoniker`1[[SpaceClaim.IEvaluation, Core]], Core" refId="aead23da-b75d-44bd-96ca-3bf784878abf:11234" /&gt;</ExplodedBodyText>
          <Id>10003</Id>
          <IsExploded>true</IsExploded>
        </Entry>
        <Entry>
          <Text>&lt;SnippetV1 sctype="SpaceClaim.BasicMoniker`1[[SpaceClaim.IEvaluation, Core]], Core" refId="21fdd05f-be9b-4168-b7b7-98eb5af600f5:2" /&gt;</Text>
          <ExplodedBodyText>&lt;SnippetV1 sctype="SpaceClaim.BasicMoniker`1[[SpaceClaim.IEvaluation, Core]], Core" refId="aead23da-b75d-44bd-96ca-3bf784878abf:12950" /&gt;</ExplodedBodyText>
          <Id>10004</Id>
          <IsExploded>true</IsExploded>
        </Entry>
        <Entry>
          <Text>&lt;SnippetV1 sctype="SpaceClaim.BasicMoniker`1[[SpaceClaim.IEvaluation, Core]], Core" refId="21fdd05f-be9b-4168-b7b7-98eb5af600f5:2" /&gt;</Text>
          <ExplodedBodyText>&lt;SnippetV1 sctype="SpaceClaim.BasicMoniker`1[[SpaceClaim.IEvaluation, Core]], Core" refId="aead23da-b75d-44bd-96ca-3bf784878abf:15982" /&gt;</ExplodedBodyText>
          <Id>10005</Id>
          <IsExploded>true</IsExploded>
        </Entry>
        <Entry>
          <Text>&lt;SnippetV1 sctype="SpaceClaim.BasicMoniker`1[[SpaceClaim.IEvaluation, Core]], Core" refId="21fdd05f-be9b-4168-b7b7-98eb5af600f5:2" /&gt;</Text>
          <ExplodedBodyText>&lt;SnippetV1 sctype="SpaceClaim.BasicMoniker`1[[SpaceClaim.IEvaluation, Core]], Core" refId="38c54126-df08-44b3-a2f1-7a71f99bc650:2744" /&gt;</ExplodedBodyText>
          <Id>10006</Id>
          <IsExploded>true</IsExploded>
        </Entry>
      </Table>
    </IdTable>'
    length unit = [m]
    processing part 'fluid_region' with ID 3
    processing part 'cathod' with ID 5
    processing part 'cathod' with ID 7
    processing part 'cathod' with ID 9
    processing part 'cathod' with ID 11
    processing part 'cathod' with ID 13
    processing part 'cathod' with ID 15
    processing named selection 'inlet'
    processing named selection 'outlet'
    processing named selection 'wall'
    processing named selection 'boi_cur_outer'
    processing named selection 'boi_cur_inner'
    processing named selection 'boi_cur_in_out'
    processing named selection 'boi_in_out'
    processing data ...
    removing named collections of entities ...
    removing named collections of entities stopped, no named collections selected.
    analyzing feature edges ...
    detecting feature edges, feature angle = 40 [deg] ...
        Data information
            Meshing model
                Attributes:
                    'LengthUnit': '[mm]'
                Entity summary:
                    Collection: 7
                    Component : 8
                    Body      : 7
                    Shell     : 7
                    Face      : 682
                    Loop      : 730
                    Edge      : 2190
                    Vertex    : 1468
                    Surface   : 682
                    Curve     : 2190
                Tessellation summary:
                    Face facets  : 13328
                    Edge segments: 7310
                Bounding box:
                    (-75.75000000000001, -4.336808689942018e-15, -23.25) x (75.75, 4, 23.25)
                Assembly component hierarchy:
                    'D:\\Objects3D\\fluent\\fuelCell\\H2BIKE\\fluent\\cathod.scdoc'
                      'fluid_region'
                      'cathod'
                      'cathod'
                      'cathod'
                      'cathod'
                      'cathod'
                      'cathod'
                NamedCollections:
                    'inlet'
                    'outlet'
                    'wall'
                    'boi_cur_outer'
                    'boi_cur_inner'
                    'boi_cur_in_out'
                    'boi_in_out'
    
    
    exporting FLTG data to file 'D:\\Objects3D\\fluent\\fuelCell\\H2BIKE\\fluent\\FM_DESKTOP-6MJKVPJ_2792\\out17029524822792.tgf' ...
    writing face-based mesh file 'D:\\Objects3D\\fluent\\fuelCell\\H2BIKE\\fluent\\FM_DESKTOP-6MJKVPJ_2792\\out17029524822792.tgf' ...
    ======== Exported Data ========
    Entity summary:
        Object       : 7
        Object region: 19
        Zone         : 31
    
    running conversion done.
    running ANSYS TGrid CADToTGridConverter done.
    ran ANSYS TGrid CADToTGridConverter in 5.900 [s]

Reading "D:\Objects3D\fluent\fuelCell\H2BIKE\fluent\FM_DESKTOP-6MJKVPJ_2792/out17029524822792.tgf"...
Reading "D:\Objects3D\fluent\fuelCell\H2BIKE\fluent\FM_DESKTOP-6MJKVPJ_2792/out17029524822792.tgf"...
nodes: 13176
edges: 7310
faces: 13328
cells: 0
reading 13176 storage data (id 1, type 41, double precision binary).
generating pointers...done.
extracting boundary entities...
 13176 boundary nodes.
 13328 boundary faces.
 13 boundary face zones.
done.
analyzing boundary connectivity...done.

---------------- Import of cathod, consisting of 7 parts/objects, complete. 
 
(cx-use-window-id 51)
(cx-set-camera-relative '(-119.247 64.2477 -19.8133) '(0 0 0) '(0.12378 -0.218516 -0.287243) 0 0)

---------------- A local size of 0.05 was added to facesize_1
---- Warning--- The string 'boi' was detected in one of the selected zone names ( origin-boi_in_out.5 ). Did you intend to create a Body Of Influence?
---- Warning--- The string 'boi' was detected in one of the selected zone names ( origin-boi_in_out.4 ). Did you intend to create a Body Of Influence?
---- Warning--- The string 'boi' was detected in one of the selected zone names ( origin-boi_in_out.3 ). Did you intend to create a Body Of Influence?
---- Warning--- The string 'boi' was detected in one of the selected zone names ( origin-boi_in_out.2 ). Did you intend to create a Body Of Influence?
---- Warning--- The string 'boi' was detected in one of the selected zone names ( origin-boi_in_out.1 ). Did you intend to create a Body Of Influence?
---- Warning--- The string 'boi' was detected in one of the selected zone names ( origin-boi_in_out ). Did you intend to create a Body Of Influence?
Writing "D:\Objects3D\fluent\fuelCell\H2BIKE\fluent\FM_DESKTOP-6MJKVPJ_2792\TaskObject3.msh.h5" ...
writing 1 node zones
writing 18 edge zones 
writing 13 face zones 
done.
---------------- The Global Max size was adjusted to 4 
    processing size functions/scoped sizing to create Size Field...

Writing "D:\Objects3D\fluent\fuelCell\H2BIKE\fluent\FM_DESKTOP-6MJKVPJ_2792\cathod.sf"...
Writing "D:\Objects3D\fluent\fuelCell\H2BIKE\fluent\FM_DESKTOP-6MJKVPJ_2792\cathod.sf"...
Done.


Importing one mesh object per program-controlled and one zone per body ...
    E:\\Ansys\\Ansys.Products.2022.R1.Win64\\Program Files\\ANSYS Inc\\v221\\commonfiles\\CPython\\3_7\\winx64\\Release\\python\\..\\Ansys\\TGrid\\CADReaders.py started by MelonJam on DESKTOP-6MJKVPJ winx64 on Tue Dec 19 10:23:04 2023
    using Python 3.7.11 (remotes/origin/b0b4eda9448d622fbb214539623a7f129f39e1f4-dirty:b0b4eda, Oct 18 20) [MSC v.1920 64 bit (AMD64)]
    
    using Ansys.Meshing.FieldMesher build Nov 30 2021 12:29:41 including TGLib build Nov 12 2019 13:13:16
    
    running ANSYS TGrid CADToTGridConverter ...
    setting up parameters ...
    setting up parameters done.
    running conversion ...
    converting 1 file(s) from Workbench to FLTG using output path 'D:\\Objects3D\\fluent\\fuelCell\\H2BIKE\\fluent\\FM_DESKTOP-6MJKVPJ_2792/out17029525842792.tgf'
    converting file 'cathod.scdoc.pmdb' (1 of 1) from Workbench to FLTG using output path 'D:\\Objects3D\\fluent\\fuelCell\\H2BIKE\\fluent\\FM_DESKTOP-6MJKVPJ_2792'
    importing data ...
    importing meshing model from PartMgr from file 'D:\\Objects3D\\fluent\\fuelCell\\H2BIKE\\fluent\\FM_DESKTOP-6MJKVPJ_2792\\\\cathod.scdoc.pmdb' ...
    setting enclosure and symmetry processing to False
    setting transfer named selections to True
    setting named selection prefixes to ''
    setting mixed import resolution type to 'SolidAndSurface'
    setting target application to 'FluentMeshing'
    initializing part manager from file ...
    processing assembly 'D:\\Objects3D\\fluent\\fuelCell\\H2BIKE\\fluent\\cathod.scdoc' with ID 1 and reference key '<?xml version="1.0" encoding="utf-16"?>
    <IdTable xmlns:xsd="http://www.w3.org/2001/XMLSchema" xmlns:xsi="http://www.w3.org/2001/XMLSchema-instance">
      <Table>
        <Entry>
          <Text>&lt;SnippetV1 sctype="SpaceClaim.OccurrenceMoniker`1[[SpaceClaim.IEvaluation, Core]], Core"&gt;&lt;instanceMoniker sctype="SpaceClaim.BasicMoniker`1[[SpaceClaim.IInstance, Core]], Core" refId="ee081486-b71e-45ee-8b17-979c281f2922:3983" /&gt;&lt;originalMoniker sctype="SpaceClaim.BasicMoniker`1[[SpaceClaim.IEvaluation, Core]], Core" refId="ee081486-b71e-45ee-8b17-979c281f2922:3979" /&gt;&lt;/SnippetV1&gt;</Text>
          <Id>10000</Id>
          <IsExploded>false</IsExploded>
        </Entry>
        <Entry>
          <Text>&lt;SnippetV1 sctype="SpaceClaim.BasicMoniker`1[[SpaceClaim.IEvaluation, Core]], Core" refId="21fdd05f-be9b-4168-b7b7-98eb5af600f5:2" /&gt;</Text>
          <ExplodedBodyText>&lt;SnippetV1 sctype="SpaceClaim.BasicMoniker`1[[SpaceClaim.IEvaluation, Core]], Core" refId="aead23da-b75d-44bd-96ca-3bf784878abf:4741" /&gt;</ExplodedBodyText>
          <Id>10001</Id>
          <IsExploded>true</IsExploded>
        </Entry>
        <Entry>
          <Text>&lt;SnippetV1 sctype="SpaceClaim.BasicMoniker`1[[SpaceClaim.IEvaluation, Core]], Core" refId="21fdd05f-be9b-4168-b7b7-98eb5af600f5:2" /&gt;</Text>
          <ExplodedBodyText>&lt;SnippetV1 sctype="SpaceClaim.BasicMoniker`1[[SpaceClaim.IEvaluation, Core]], Core" refId="aead23da-b75d-44bd-96ca-3bf784878abf:9334" /&gt;</ExplodedBodyText>
          <Id>10002</Id>
          <IsExploded>true</IsExploded>
        </Entry>
        <Entry>
          <Text>&lt;SnippetV1 sctype="SpaceClaim.BasicMoniker`1[[SpaceClaim.IEvaluation, Core]], Core" refId="21fdd05f-be9b-4168-b7b7-98eb5af600f5:2" /&gt;</Text>
          <ExplodedBodyText>&lt;SnippetV1 sctype="SpaceClaim.BasicMoniker`1[[SpaceClaim.IEvaluation, Core]], Core" refId="aead23da-b75d-44bd-96ca-3bf784878abf:11234" /&gt;</ExplodedBodyText>
          <Id>10003</Id>
          <IsExploded>true</IsExploded>
        </Entry>
        <Entry>
          <Text>&lt;SnippetV1 sctype="SpaceClaim.BasicMoniker`1[[SpaceClaim.IEvaluation, Core]], Core" refId="21fdd05f-be9b-4168-b7b7-98eb5af600f5:2" /&gt;</Text>
          <ExplodedBodyText>&lt;SnippetV1 sctype="SpaceClaim.BasicMoniker`1[[SpaceClaim.IEvaluation, Core]], Core" refId="aead23da-b75d-44bd-96ca-3bf784878abf:12950" /&gt;</ExplodedBodyText>
          <Id>10004</Id>
          <IsExploded>true</IsExploded>
        </Entry>
        <Entry>
          <Text>&lt;SnippetV1 sctype="SpaceClaim.BasicMoniker`1[[SpaceClaim.IEvaluation, Core]], Core" refId="21fdd05f-be9b-4168-b7b7-98eb5af600f5:2" /&gt;</Text>
          <ExplodedBodyText>&lt;SnippetV1 sctype="SpaceClaim.BasicMoniker`1[[SpaceClaim.IEvaluation, Core]], Core" refId="aead23da-b75d-44bd-96ca-3bf784878abf:15982" /&gt;</ExplodedBodyText>
          <Id>10005</Id>
          <IsExploded>true</IsExploded>
        </Entry>
        <Entry>
          <Text>&lt;SnippetV1 sctype="SpaceClaim.BasicMoniker`1[[SpaceClaim.IEvaluation, Core]], Core" refId="21fdd05f-be9b-4168-b7b7-98eb5af600f5:2" /&gt;</Text>
          <ExplodedBodyText>&lt;SnippetV1 sctype="SpaceClaim.BasicMoniker`1[[SpaceClaim.IEvaluation, Core]], Core" refId="38c54126-df08-44b3-a2f1-7a71f99bc650:2744" /&gt;</ExplodedBodyText>
          <Id>10006</Id>
          <IsExploded>true</IsExploded>
        </Entry>
      </Table>
    </IdTable>'
    length unit = [m]
    processing part 'fluid_region' with ID 3
    processing part 'cathod' with ID 5
    processing part 'cathod' with ID 7
    processing part 'cathod' with ID 9
    processing part 'cathod' with ID 11
    processing part 'cathod' with ID 13
    processing part 'cathod' with ID 15
    processing named selection 'inlet'
    processing named selection 'outlet'
    processing named selection 'wall'
    processing named selection 'boi_cur_outer'
    processing named selection 'boi_cur_inner'
    processing named selection 'boi_cur_in_out'
    processing named selection 'boi_in_out'
    processing data ...
    loading size function background grid from file 'D:\\Objects3D\\fluent\\fuelCell\\H2BIKE\\fluent\\FM_DESKTOP-6MJKVPJ_2792\\\\cathod.sf' ...
    reading size function background grid file 'D:\\Objects3D\\fluent\\fuelCell\\H2BIKE\\fluent\\FM_DESKTOP-6MJKVPJ_2792\\\\cathod.sf' ...
     Read 604943 vertices
    initializing size function background grid done in 0.287 [s]
    tessellating 682 faces done in 12.333 [s]
    removing named collections of entities ...
    removing named collections of entities stopped, no named collections selected.
    analyzing feature edges ...
    detecting feature edges, feature angle = 40 [deg] ...
        Data information
            Meshing model
                Attributes:
                    'LengthUnit': '[mm]'
                Entity summary:
                    Collection: 7
                    Component : 8
                    Body      : 7
                    Shell     : 7
                    Face      : 682
                    Loop      : 730
                    Edge      : 2190
                    Vertex    : 1468
                    Surface   : 682
                    Curve     : 2190
                Tessellation summary:
                    Face facets  : 1030597
                    Edge segments: 72516
                Bounding box:
                    (-75.75, -4.336808689942018e-15, -23.25) x (75.75, 4, 23.25)
                Assembly component hierarchy:
                    'D:\\Objects3D\\fluent\\fuelCell\\H2BIKE\\fluent\\cathod.scdoc'
                      'fluid_region'
                      'cathod'
                      'cathod'
                      'cathod'
                      'cathod'
                      'cathod'
                      'cathod'
                NamedCollections:
                    'inlet'
                    'outlet'
                    'wall'
                    'boi_cur_outer'
                    'boi_cur_inner'
                    'boi_cur_in_out'
                    'boi_in_out'
    
    
    exporting FLTG data to file 'D:\\Objects3D\\fluent\\fuelCell\\H2BIKE\\fluent\\FM_DESKTOP-6MJKVPJ_2792\\out17029525842792.tgf' ...
    writing face-based mesh file 'D:\\Objects3D\\fluent\\fuelCell\\H2BIKE\\fluent\\FM_DESKTOP-6MJKVPJ_2792\\out17029525842792.tgf' ...
    ======== Exported Data ========
    Entity summary:
        Object       : 7
        Object region: 19
        Zone         : 31
    
    running conversion done.
    running ANSYS TGrid CADToTGridConverter done.
    ran ANSYS TGrid CADToTGridConverter in 13.983 [s]

Reading "D:\Objects3D\fluent\fuelCell\H2BIKE\fluent\FM_DESKTOP-6MJKVPJ_2792/out17029525842792.tgf"...
Reading "D:\Objects3D\fluent\fuelCell\H2BIKE\fluent\FM_DESKTOP-6MJKVPJ_2792/out17029525842792.tgf"...
nodes: 589813
edges: 72516
faces: 1030597
cells: 0
reading 589813 storage data (id 1, type 41, double precision binary).
appending mesh...
done.
generating pointers...done.
extracting boundary entities...
 602989 boundary nodes.
 1043925 boundary faces.
 26 boundary face zones.
done.

Reading "D:\Objects3D\fluent\fuelCell\H2BIKE\fluent\FM_DESKTOP-6MJKVPJ_2792\\cathod.sf"...
Reading "D:\Objects3D\fluent\fuelCell\H2BIKE\fluent\FM_DESKTOP-6MJKVPJ_2792\\cathod.sf"...
 Read 604943 vertices
418 boundary nodes.
0 faces removed.

---------------- After surface meshing, 7 objects/parts have been detected. The Share Topology task should be added in order to proceed.
(cx-use-window-id 51)
(cx-set-camera-relative '(24.3699 -28.1491 17.8735) '(0 0 0) '(0.197827 0.378864 0.322795) 0 0)
(cx-use-window-id 51)
(cx-set-camera-relative '(3.45919 -4.63285 -0.268822) '(0 0 0) '(0.0774253 0.0674377 0.124158) 0 0)
(cx-use-window-id 51)
(cx-set-camera-relative '(-0.117043 0.769933 -0.28221) '(0 0 0) '(-0.0371444 -0.0195343 -0.037944) 0 0)
(cx-use-window-id 51)
(cx-set-camera-relative '(0.0843468 -0.291749 0.0350313) '(0 0 0) '(0.131962 0.0543576 0.134042) 0 0)
(cx-use-window-id 51)
(cx-set-camera-relative '(-38.0433 0.814793 10.6974) '(0 0 0) '(0.00890692 0.00940973 0.0409129) 0 0)
(cx-use-window-id 51)
(cx-set-camera-relative '(-2.97732 -0.786451 -0.851913) '(0 0 0) '(-0.00966133 0.00607693 0.0319732) 0 0)
(cx-use-window-id 51)
(cx-set-camera-relative '(-0.714798 0.36421 -0.446022) '(0 0 0) '(0.0321103 -0.0122803 -0.0584904) 0 0)
Writing "D:\Objects3D\fluent\fuelCell\H2BIKE\fluent\FM_DESKTOP-6MJKVPJ_2792\TaskObject5.msh.h5" ...
writing 2 node zones
writing 36 edge zones 
writing 26 face zones 
done.
Found overlapping faces sharing edge bn73381-bn73386 (54.750000 4.000000 13.866864).
Warning: 
The regions may not be computed correctly.
Found overlapping faces sharing edge bn73380-bn73381 (54.750000 4.000000 13.806480).
Warning: 
The regions may not be computed correctly.
Found overlapping faces sharing edge bn62705-bn62706 (54.750000 4.000000 5.430281).
Warning: 
The regions may not be computed correctly.
Found overlapping faces sharing edge bn62706-bn62729 (54.750000 4.000000 5.482287).
Warning: 
The regions may not be computed correctly.
Found overlapping faces sharing edge bn62685-bn62705 (54.750000 4.000000 5.378284).
Warning: 
The regions may not be computed correctly.
Found overlapping faces sharing edge bn55335-bn55347 (54.750000 4.000000 17.466865).
Warning: 
The regions may not be computed correctly.
Found overlapping faces sharing edge bn55334-bn55335 (54.750000 4.000000 17.406481).
Warning: 
The regions may not be computed correctly.
Found overlapping faces sharing edge bn210687-bn210754 (58.250000 2.999993 16.417706).
Warning: 
The regions may not be computed correctly.
Found overlapping faces sharing edge bn46462-bn46463 (54.750000 4.000000 3.027295).
Warning: 
The regions may not be computed correctly.
Found overlapping faces sharing edge bn46463-bn46471 (54.750000 4.000000 3.077804).
Warning: 
The regions may not be computed correctly.
Found overlapping faces sharing edge bn46442-bn46450 (54.750000 4.000000 2.875778).
Warning: 
The regions may not be computed correctly.
Found overlapping faces sharing edge bn46450-bn46451 (54.750000 4.000000 2.926369).
Warning: 
The regions may not be computed correctly.
Found overlapping faces sharing edge bn46451-bn46462 (54.750000 4.000000 2.976825).
Warning: 
The regions may not be computed correctly.
Found overlapping faces sharing edge bn46441-bn46442 (54.750000 4.000000 2.825207).
Warning: 
The regions may not be computed correctly.
Found overlapping faces sharing edge bn211169-bn211279 (58.250000 2.999891 1.960477).
Warning: 
The regions may not be computed correctly.
Found overlapping faces sharing edge bn322260-bn322261 (54.750000 2.817987 -1.600000).
Warning: 
The regions may not be computed correctly.
Found overlapping faces sharing edge bn322261-bn322263 (54.750000 2.868792 -1.600000).
Warning: 
The regions may not be computed correctly.
Found overlapping faces sharing edge bn322263-bn322264 (54.750000 2.920691 -1.600000).
Warning: 
The regions may not be computed correctly.
Found overlapping faces sharing edge bn322264-bn322295 (54.750000 2.973596 -1.600000).
Warning: 
The regions may not be computed correctly.
Found overlapping faces sharing edge bn198966-bn200640 (58.250000 0.000000 7.481501).
Warning: 
The regions may not be computed correctly.
Found overlapping faces sharing edge bn200640-bn199843 (58.250000 0.000000 7.535990).
Warning: 
The regions may not be computed correctly.
Found overlapping faces sharing edge bn199843-bn199842 (58.250000 0.000000 7.589980).
Warning: 
The regions may not be computed correctly.
Found overlapping faces sharing edge bn199842-bn199837 (58.250000 0.000000 7.643939).
Warning: 
The regions may not be computed correctly.
Found overlapping faces sharing edge bn199837-bn199836 (58.250000 0.000000 7.697892).
Warning: 
The regions may not be computed correctly.
Found overlapping faces sharing edge bn199836-bn199834 (58.250000 0.000000 7.751835).
Warning: 
The regions may not be computed correctly.
Found overlapping faces sharing edge bn199929-bn199675 (58.250000 2.519292 -1.600000).
Warning: 
The regions may not be computed correctly.
Found overlapping faces sharing edge bn199674-bn198994 (58.250000 2.420221 -1.600000).
Warning: 
The regions may not be computed correctly.
Found overlapping faces sharing edge bn199675-bn199674 (58.250000 2.469736 -1.600000).
Warning: 
The regions may not be computed correctly.
Found overlapping faces sharing edge bn198967-bn198966 (58.250000 0.000000 7.427009).
Warning: 
The regions may not be computed correctly.
Found overlapping faces sharing edge bn200190-bn200189 (58.250000 2.271947 -1.600000).
Warning: 
The regions may not be computed correctly.
Found overlapping faces sharing edge bn322232-bn322233 (54.750000 2.071766 -1.600000).
Warning: 
The regions may not be computed correctly.
Found overlapping faces sharing edge bn322233-bn322235 (54.750000 2.124497 -1.600000).
Warning: 
The regions may not be computed correctly.
Found overlapping faces sharing edge bn198993-bn200190 (58.250000 2.321324 -1.600000).
Warning: 
The regions may not be computed correctly.
Found overlapping faces sharing edge bn198994-bn198993 (58.250000 2.370750 -1.600000).
Warning: 
The regions may not be computed correctly.
Found overlapping faces sharing edge bn200189-bn199183 (58.250000 2.222620 -1.600000).
Warning: 
The regions may not be computed correctly.
Found overlapping faces sharing edge bn200203-bn200202 (58.250000 0.000000 17.526454).
Warning: 
The regions may not be computed correctly.
Found overlapping faces sharing edge bn200202-bn200184 (58.250000 0.000000 17.576619).
Warning: 
The regions may not be computed correctly.
Found overlapping faces sharing edge bn200184-bn200183 (58.250000 0.000000 17.626792).
Warning: 
The regions may not be computed correctly.
Found overlapping faces sharing edge bn199183-bn199182 (58.250000 2.173346 -1.600000).
Warning: 
The regions may not be computed correctly.
Found overlapping faces sharing edge bn199182-bn199251 (58.250000 2.124097 -1.600000).
Warning: 
The regions may not be computed correctly.
Found overlapping faces sharing edge bn199251-bn199250 (58.250000 2.074301 -1.600000).
Warning: 
The regions may not be computed correctly.
Found overlapping faces sharing edge bn199250-bn198955 (58.250000 2.024565 -1.600000).
Warning: 
The regions may not be computed correctly.
Found overlapping faces sharing edge bn200226-bn200203 (58.250000 0.000000 17.476296).
Warning: 
The regions may not be computed correctly.
Found overlapping faces sharing edge bn200227-bn200226 (58.250000 0.000000 17.426147).
Warning: 
The regions may not be computed correctly.
Found overlapping faces sharing edge bn200248-bn200247 (58.250000 0.000000 17.325877).
Warning: 
The regions may not be computed correctly.
Found overlapping faces sharing edge bn200247-bn200227 (58.250000 0.000000 17.376008).
Warning: 
The regions may not be computed correctly.
Found overlapping faces sharing edge bn200524-bn200522 (58.250000 0.000000 2.920863).
Warning: 
The regions may not be computed correctly.
Found overlapping faces sharing edge bn200522-bn200521 (58.250000 0.000000 2.978943).
Warning: 
The regions may not be computed correctly.
Found overlapping faces sharing edge bn177020-bn177019 (61.750000 0.000000 17.774997).
Warning: 
The regions may not be computed correctly.
Found overlapping faces sharing edge bn178538-bn177050 (61.750000 0.000000 14.624907).
Warning: 
The regions may not be computed correctly.
Found overlapping faces sharing edge bn177238-bn177230 (61.750000 0.000000 8.011032).
Warning: 
The regions may not be computed correctly.
Found overlapping faces sharing edge bn177019-bn177152 (61.750000 0.000000 17.724982).
Warning: 
The regions may not be computed correctly.
Found overlapping faces sharing edge bn178539-bn178538 (61.750000 0.000000 14.674821).
Warning: 
The regions may not be computed correctly.
Found overlapping faces sharing edge bn177230-bn177229 (61.750000 0.000000 7.957228).
Warning: 
The regions may not be computed correctly.
Found overlapping faces sharing edge bn177152-bn177151 (61.750000 0.000000 17.674967).
Warning: 
The regions may not be computed correctly.
Found overlapping faces sharing edge bn178547-bn178539 (61.750000 0.000000 14.724837).
Warning: 
The regions may not be computed correctly.
Found overlapping faces sharing edge bn177229-bn177218 (61.750000 0.000000 7.903310).
Warning: 
The regions may not be computed correctly.
Found overlapping faces sharing edge bn177151-bn177149 (61.750000 0.000000 17.624960).
Warning: 
The regions may not be computed correctly.
Found overlapping faces sharing edge bn178548-bn178547 (61.750000 0.000000 14.774853).
Warning: 
The regions may not be computed correctly.
Found overlapping faces sharing edge bn177218-bn177217 (61.750000 0.000000 7.849280).
Warning: 
The regions may not be computed correctly.
Found overlapping faces sharing edge bn177008-bn177007 (61.750000 0.000000 5.771547).
Warning: 
The regions may not be computed correctly.
Found overlapping faces sharing edge bn177149-bn177148 (61.750000 0.000000 17.574953).
Warning: 
The regions may not be computed correctly.
Found overlapping faces sharing edge bn178550-bn178548 (61.750000 0.000000 14.824868).
Warning: 
The regions may not be computed correctly.
Found overlapping faces sharing edge bn177121-bn177017 (61.750000 0.000000 17.024917).
Warning: 
The regions may not be computed correctly.
Found overlapping faces sharing edge bn177217-bn177209 (61.750000 0.000000 7.795544).
Warning: 
The regions may not be computed correctly.
Found overlapping faces sharing edge bn177007-bn178296 (61.750000 0.000000 5.714474).
Warning: 
The regions may not be computed correctly.
Found overlapping faces sharing edge bn177148-bn177143 (61.750000 0.000000 17.524945).
Warning: 
The regions may not be computed correctly.
Found overlapping faces sharing edge bn177122-bn177121 (61.750000 0.000000 17.074841).
Warning: 
The regions may not be computed correctly.
Found overlapping faces sharing edge bn178296-bn178295 (61.750000 0.000000 5.657334).
Warning: 
The regions may not be computed correctly.
Found overlapping faces sharing edge bn177143-bn177142 (61.750000 0.000000 17.474936).
Warning: 
The regions may not be computed correctly.
Found overlapping faces sharing edge bn177127-bn177122 (61.750000 0.000000 17.124855).
Warning: 
The regions may not be computed correctly.
Found overlapping faces sharing edge bn178295-bn178284 (61.750000 0.000000 5.600264).
Warning: 
The regions may not be computed correctly.
Found overlapping faces sharing edge bn178557-bn178556 (61.750000 0.000000 14.974908).
Warning: 
The regions may not be computed correctly.
Found overlapping faces sharing edge bn177142-bn177140 (61.750000 0.000000 17.424928).
Warning: 
The regions may not be computed correctly.
Found overlapping faces sharing edge bn178559-bn178557 (61.750000 0.000000 15.024920).
Warning: 
The regions may not be computed correctly.
Found overlapping faces sharing edge bn177128-bn177127 (61.750000 0.000000 17.174869).
Warning: 
The regions may not be computed correctly.
Found overlapping faces sharing edge bn178239-bn178238 (61.750000 0.000000 5.083796).
Warning: 
The regions may not be computed correctly.
Found overlapping faces sharing edge bn178284-bn178283 (61.750000 0.000000 5.543134).
Warning: 
The regions may not be computed correctly.
Found overlapping faces sharing edge bn177140-bn177139 (61.750000 0.000000 17.374918).
Warning: 
The regions may not be computed correctly.
Found overlapping faces sharing edge bn178560-bn178559 (61.750000 0.000000 15.074930).
Warning: 
The regions may not be computed correctly.
Found overlapping faces sharing edge bn177130-bn177128 (61.750000 0.000000 17.224881).
Warning: 
The regions may not be computed correctly.
Found overlapping faces sharing edge bn178250-bn178239 (61.750000 0.000000 5.141388).
Warning: 
The regions may not be computed correctly.
Found overlapping faces sharing edge bn178283-bn178272 (61.750000 0.000000 5.485937).
Warning: 
The regions may not be computed correctly.
Found overlapping faces sharing edge bn177139-bn177131 (61.750000 0.000000 17.324906).
Warning: 
The regions may not be computed correctly.
Found overlapping faces sharing edge bn177131-bn177130 (61.750000 0.000000 17.274894).
Warning: 
The regions may not be computed correctly.
Found overlapping faces sharing edge bn178251-bn178250 (61.750000 0.000000 5.198974).
Warning: 
The regions may not be computed correctly.
Found overlapping faces sharing edge bn178272-bn178271 (61.750000 0.000000 5.428675).
Warning: 
The regions may not be computed correctly.
Found overlapping faces sharing edge bn178262-bn178251 (61.750000 0.000000 5.256496).
Warning: 
The regions may not be computed correctly.
Found overlapping faces sharing edge bn178271-bn178263 (61.750000 0.000000 5.371346).
Warning: 
The regions may not be computed correctly.
Found overlapping faces sharing edge bn178263-bn178262 (61.750000 0.000000 5.313953).
Warning: 
The regions may not be computed correctly.
Found overlapping faces sharing edge bn178293-bn178292 (61.750000 0.000000 -2.322983).
Warning: 
The regions may not be computed correctly.
Found overlapping faces sharing edge bn178292-bn178158 (61.750000 0.000000 -2.373120).
Warning: 
The regions may not be computed correctly.
Found overlapping faces sharing edge bn178158-bn178157 (61.750000 0.000000 -2.422929).
Warning: 
The regions may not be computed correctly.
Found overlapping faces sharing edge bn178157-bn177924 (61.750000 0.000000 -2.472642).
Warning: 
The regions may not be computed correctly.
Found overlapping faces sharing edge bn177924-bn177923 (61.750000 0.000000 -2.522370).
Warning: 
The regions may not be computed correctly.
Found overlapping faces sharing edge bn177923-bn177792 (61.750000 0.000000 -2.572112).
Warning: 
The regions may not be computed correctly.
Found overlapping faces sharing edge bn41865-bn41873 (-54.750000 4.000000 -6.489218).
Warning: 
The regions may not be computed correctly.
Found overlapping faces sharing edge bn41864-bn41865 (-54.750000 4.000000 -6.429602).
Warning: 
The regions may not be computed correctly.
Found overlapping faces sharing edge bn60725-bn60728 (-54.750000 4.000000 -0.593520).
Warning: 
The regions may not be computed correctly.
Found overlapping faces sharing edge bn60724-bn60725 (-54.750000 4.000000 -0.533136).
Warning: 
The regions may not be computed correctly.
Found overlapping faces sharing edge bn60728-bn60729 (-54.750000 4.000000 -0.651903).
Warning: 
The regions may not be computed correctly.
Found overlapping faces sharing edge bn40347-bn40361 (-54.750000 4.000000 -14.972703).
Warning: 
The regions may not be computed correctly.
Found overlapping faces sharing edge bn40346-bn40347 (-54.750000 4.000000 -14.922194).
Warning: 
The regions may not be computed correctly.
Found overlapping faces sharing edge bn40362-bn40370 (-54.750000 4.000000 -15.073631).
Warning: 
The regions may not be computed correctly.
Found overlapping faces sharing edge bn40361-bn40362 (-54.750000 4.000000 -15.023175).
Warning: 
The regions may not be computed correctly.
Found overlapping faces sharing edge bn40371-bn40382 (-54.750000 4.000000 -15.174793).
Warning: 
The regions may not be computed correctly.
Found overlapping faces sharing edge bn40370-bn40371 (-54.750000 4.000000 -15.124222).
Warning: 
The regions may not be computed correctly.
Found overlapping faces sharing edge bn56946-bn56947 (-54.750000 4.000000 0.651903).
Warning: 
The regions may not be computed correctly.
Found overlapping faces sharing edge bn56944-bn56946 (-54.750000 4.000000 0.710835).
Warning: 
The regions may not be computed correctly.
Found overlapping faces sharing edge bn56943-bn56944 (-54.750000 4.000000 0.770426).
Warning: 
The regions may not be computed correctly.
Found overlapping faces sharing edge bn221210-bn221205 (-54.750000 2.125103 1.600000).
Warning: 
The regions may not be computed correctly.
Found overlapping faces sharing edge bn221211-bn221210 (-54.750000 2.072405 1.600000).
Warning: 
The regions may not be computed correctly.
Found overlapping faces sharing edge bn258065-bn258060 (-58.250000 0.000000 -8.069822).
Warning: 
The regions may not be computed correctly.
Found overlapping faces sharing edge bn258066-bn258065 (-58.250000 0.000000 -8.015828).
Warning: 
The regions may not be computed correctly.
Found overlapping faces sharing edge bn258071-bn258066 (-58.250000 0.000000 -7.964649).
Warning: 
The regions may not be computed correctly.
Found overlapping faces sharing edge bn258072-bn258071 (-58.250000 0.000000 -7.913595).
Warning: 
The regions may not be computed correctly.
Found overlapping faces sharing edge bn258077-bn258072 (-58.250000 0.000000 -7.859689).
Warning: 
The regions may not be computed correctly.
Found overlapping faces sharing edge bn221455-bn221453 (-54.750000 2.868903 -19.600000).
Warning: 
The regions may not be computed correctly.
Found overlapping faces sharing edge bn221456-bn221455 (-54.750000 2.920777 -19.600000).
Warning: 
The regions may not be computed correctly.
Found overlapping faces sharing edge bn220927-bn221456 (-54.750000 2.973587 -19.600000).
Warning: 
The regions may not be computed correctly.
Found overlapping faces sharing edge bn257867-bn257837 (-58.250000 2.570062 -19.600000).
Warning: 
The regions may not be computed correctly.
Found overlapping faces sharing edge bn257837-bn257836 (-58.250000 2.619810 -19.600000).
Warning: 
The regions may not be computed correctly.
Found overlapping faces sharing edge bn257836-bn257822 (-58.250000 2.669596 -19.600000).
Warning: 
The regions may not be computed correctly.
Found overlapping faces sharing edge bn257822-bn257821 (-58.250000 2.719419 -19.600000).
Warning: 
The regions may not be computed correctly.
Found overlapping faces sharing edge bn257827-bn20153 (-58.250000 0.000000 -10.572961).
Warning: 
The regions may not be computed correctly.
Found overlapping faces sharing edge bn257868-bn257867 (-58.250000 2.520354 -19.600000).
Warning: 
The regions may not be computed correctly.
Found overlapping faces sharing edge bn257875-bn257868 (-58.250000 2.470688 -19.600000).
Warning: 
The regions may not be computed correctly.
Found overlapping faces sharing edge bn257902-bn257890 (-58.250000 2.272489 -19.600000).
Warning: 
The regions may not be computed correctly.
Found overlapping faces sharing edge bn257890-bn257889 (-58.250000 2.321964 -19.600000).
Warning: 
The regions may not be computed correctly.
Found overlapping faces sharing edge bn257889-bn257876 (-58.250000 2.371490 -19.600000).
Warning: 
The regions may not be computed correctly.
Found overlapping faces sharing edge bn257876-bn257875 (-58.250000 2.421066 -19.600000).
Warning: 
The regions may not be computed correctly.
Found overlapping faces sharing edge bn258492-bn258487 (-58.250000 0.000000 -3.259665).
Warning: 
The regions may not be computed correctly.
Found overlapping faces sharing edge bn258495-bn258493 (-58.250000 0.000000 -3.144595).
Warning: 
The regions may not be computed correctly.
Found overlapping faces sharing edge bn258496-bn258495 (-58.250000 0.000000 -3.086071).
Warning: 
The regions may not be computed correctly.
Found overlapping faces sharing edge bn258493-bn258492 (-58.250000 0.000000 -3.203089).
Warning: 
The regions may not be computed correctly.
Found overlapping faces sharing edge bn257913-bn257903 (-58.250000 2.173701 -19.600000).
Warning: 
The regions may not be computed correctly.
Found overlapping faces sharing edge bn257903-bn257902 (-58.250000 2.223067 -19.600000).
Warning: 
The regions may not be computed correctly.
Found overlapping faces sharing edge bn221418-bn221409 (-54.750000 2.022931 -19.600000).
Warning: 
The regions may not be computed correctly.
Found overlapping faces sharing edge bn221419-bn221418 (-54.750000 2.075594 -19.600000).
Warning: 
The regions may not be computed correctly.
Found overlapping faces sharing edge bn257514-bn257510 (-58.250000 0.000000 -12.526792).
Warning: 
The regions may not be computed correctly.
Found overlapping faces sharing edge bn257515-bn257514 (-58.250000 0.000000 -12.476645).
Warning: 
The regions may not be computed correctly.
Found overlapping faces sharing edge bn257525-bn257515 (-58.250000 0.000000 -12.426481).
Warning: 
The regions may not be computed correctly.
Found overlapping faces sharing edge bn257526-bn257525 (-58.250000 0.000000 -12.376291).
Warning: 
The regions may not be computed correctly.
Found overlapping faces sharing edge bn20599-bn257477 (-58.250000 0.000000 -12.225149).
Warning: 
The regions may not be computed correctly.
Found overlapping faces sharing edge bn258518-bn257526 (-58.250000 0.000000 -12.326065).
Warning: 
The regions may not be computed correctly.
Found overlapping faces sharing edge bn257477-bn258518 (-58.250000 0.000000 -12.275619).
Warning: 
The regions may not be computed correctly.
Found overlapping faces sharing edge bn258489-bn258481 (-58.250000 0.000000 -12.878056).
Warning: 
The regions may not be computed correctly.
Found overlapping faces sharing edge bn258490-bn258489 (-58.250000 0.000000 -12.827843).
Warning: 
The regions may not be computed correctly.
Found overlapping faces sharing edge bn258498-bn258490 (-58.250000 0.000000 -12.777640).
Warning: 
The regions may not be computed correctly.
Found overlapping faces sharing edge bn258499-bn258498 (-58.250000 0.000000 -12.727448).
Warning: 
The regions may not be computed correctly.
Found overlapping faces sharing edge bn258950-bn258499 (-58.250000 0.000000 -12.677267).
Warning: 
The regions may not be computed correctly.
Found overlapping faces sharing edge bn257509-bn258950 (-58.250000 0.000000 -12.627097).
Warning: 
The regions may not be computed correctly.
Found overlapping faces sharing edge bn257510-bn257509 (-58.250000 0.000000 -12.576939).
Warning: 
The regions may not be computed correctly.
Found overlapping faces sharing edge bn258481-bn258480 (-58.250000 0.000000 -12.927374).
Warning: 
The regions may not be computed correctly.
Found overlapping faces sharing edge bn258480-bn21050 (-58.250000 0.000000 -12.975791).
Warning: 
The regions may not be computed correctly.
Found overlapping faces sharing edge bn229040-bn229551 (-54.750000 2.002004 -19.069556).
Warning: 
The regions may not be computed correctly.
Found overlapping faces sharing edge bn237330-bn237329 (-61.750000 0.000000 -9.931493).
Warning: 
The regions may not be computed correctly.
Found overlapping faces sharing edge bn236358-bn15693 (-61.750000 0.000000 -0.224916).
Warning: 
The regions may not be computed correctly.
Found overlapping faces sharing edge bn236405-bn20595 (-61.750000 0.000000 -12.227168).
Warning: 
The regions may not be computed correctly.
Found overlapping faces sharing edge bn237333-bn237330 (-61.750000 0.000000 -9.984260).
Warning: 
The regions may not be computed correctly.
Found overlapping faces sharing edge bn237165-bn236358 (-61.750000 0.000000 -0.274840).
Warning: 
The regions may not be computed correctly.
Found overlapping faces sharing edge bn236406-bn236405 (-61.750000 0.000000 -12.282870).
Warning: 
The regions may not be computed correctly.
Found overlapping faces sharing edge bn237334-bn237333 (-61.750000 0.000000 -10.038910).
Warning: 
The regions may not be computed correctly.
Found overlapping faces sharing edge bn237166-bn237165 (-61.750000 0.000000 -0.324854).
Warning: 
The regions may not be computed correctly.
Found overlapping faces sharing edge bn236447-bn16988 (-61.750000 0.000000 -2.624906).
Warning: 
The regions may not be computed correctly.
Found overlapping faces sharing edge bn236409-bn236406 (-61.750000 0.000000 -12.339960).
Warning: 
The regions may not be computed correctly.
Found overlapping faces sharing edge bn237337-bn237334 (-61.750000 0.000000 -10.093590).
Warning: 
The regions may not be computed correctly.
Found overlapping faces sharing edge bn237174-bn237166 (-61.750000 0.000000 -0.374867).
Warning: 
The regions may not be computed correctly.
Found overlapping faces sharing edge bn236448-bn236447 (-61.750000 0.000000 -2.674819).
Warning: 
The regions may not be computed correctly.
Found overlapping faces sharing edge bn236410-bn236409 (-61.750000 0.000000 -12.397097).
Warning: 
The regions may not be computed correctly.
Found overlapping faces sharing edge bn16543-bn236337 (-61.750000 0.000000 -0.974997).
Warning: 
The regions may not be computed correctly.
Found overlapping faces sharing edge bn237175-bn237174 (-61.750000 0.000000 -0.424880).
Warning: 
The regions may not be computed correctly.
Found overlapping faces sharing edge bn236452-bn236448 (-61.750000 0.000000 -2.724835).
Warning: 
The regions may not be computed correctly.
Found overlapping faces sharing edge bn236412-bn236410 (-61.750000 0.000000 -12.454279).
Warning: 
The regions may not be computed correctly.
Found overlapping faces sharing edge bn236337-bn237530 (-61.750000 0.000000 -0.924982).
Warning: 
The regions may not be computed correctly.
Found overlapping faces sharing edge bn237179-bn237175 (-61.750000 0.000000 -0.474892).
Warning: 
The regions may not be computed correctly.
Found overlapping faces sharing edge bn236453-bn236452 (-61.750000 0.000000 -2.774850).
Warning: 
The regions may not be computed correctly.
Found overlapping faces sharing edge bn236413-bn236412 (-61.750000 0.000000 -12.511507).
Warning: 
The regions may not be computed correctly.
Found overlapping faces sharing edge bn237530-bn237200 (-61.750000 0.000000 -0.874966).
Warning: 
The regions may not be computed correctly.
Found overlapping faces sharing edge bn237180-bn237179 (-61.750000 0.000000 -0.524904).
Warning: 
The regions may not be computed correctly.
Found overlapping faces sharing edge bn236523-bn236522 (-61.750000 0.000000 2.171662).
Warning: 
The regions may not be computed correctly.
Found overlapping faces sharing edge bn236463-bn236453 (-61.750000 0.000000 -2.824864).
Warning: 
The regions may not be computed correctly.
Found overlapping faces sharing edge bn236419-bn236413 (-61.750000 0.000000 -12.568779).
Warning: 
The regions may not be computed correctly.
Found overlapping faces sharing edge bn237200-bn237199 (-61.750000 0.000000 -0.824959).
Warning: 
The regions may not be computed correctly.
Found overlapping faces sharing edge bn236522-bn236503 (-61.750000 0.000000 2.221431).
Warning: 
The regions may not be computed correctly.
Found overlapping faces sharing edge bn237185-bn237180 (-61.750000 0.000000 -0.574915).
Warning: 
The regions may not be computed correctly.
Found overlapping faces sharing edge bn236503-bn236502 (-61.750000 0.000000 2.271212).
Warning: 
The regions may not be computed correctly.
Found overlapping faces sharing edge bn236464-bn236463 (-61.750000 0.000000 -2.874878).
Warning: 
The regions may not be computed correctly.
Found overlapping faces sharing edge bn236420-bn236419 (-61.750000 0.000000 -12.626097).
Warning: 
The regions may not be computed correctly.
Found overlapping faces sharing edge bn237199-bn237191 (-61.750000 0.000000 -0.774952).
Warning: 
The regions may not be computed correctly.
Found overlapping faces sharing edge bn236502-bn236489 (-61.750000 0.000000 2.321006).
Warning: 
The regions may not be computed correctly.
Found overlapping faces sharing edge bn237186-bn237185 (-61.750000 0.000000 -0.624925).
Warning: 
The regions may not be computed correctly.
Found overlapping faces sharing edge bn236489-bn236488 (-61.750000 0.000000 2.370811).
Warning: 
The regions may not be computed correctly.
Found overlapping faces sharing edge bn236422-bn236420 (-61.750000 0.000000 -12.683459).
Warning: 
The regions may not be computed correctly.
Found overlapping faces sharing edge bn236423-bn236422 (-61.750000 0.000000 -12.740864).
Warning: 
The regions may not be computed correctly.
Found overlapping faces sharing edge bn237191-bn237190 (-61.750000 0.000000 -0.724944).
Warning: 
The regions may not be computed correctly.
Found overlapping faces sharing edge bn236488-bn236473 (-61.750000 0.000000 2.420627).
Warning: 
The regions may not be computed correctly.
Found overlapping faces sharing edge bn237190-bn237186 (-61.750000 0.000000 -0.674935).
Warning: 
The regions may not be computed correctly.
Found overlapping faces sharing edge bn236468-bn236464 (-61.750000 0.000000 -2.924891).
Warning: 
The regions may not be computed correctly.
Found overlapping faces sharing edge bn236469-bn236468 (-61.750000 0.000000 -2.974903).
Warning: 
The regions may not be computed correctly.
Found overlapping faces sharing edge bn237381-bn237380 (-61.750000 0.000000 -19.689496).
Warning: 
The regions may not be computed correctly.
Found overlapping faces sharing edge bn236476-bn236469 (-61.750000 0.000000 -3.024915).
Warning: 
The regions may not be computed correctly.
Found overlapping faces sharing edge bn237380-bn236364 (-61.750000 0.000000 -19.629821).
Warning: 
The regions may not be computed correctly.
Found overlapping faces sharing edge bn236539-bn236523 (-61.750000 0.000000 2.121907).
Warning: 
The regions may not be computed correctly.
Found overlapping faces sharing edge bn236477-bn236476 (-61.750000 0.000000 -3.074926).
Warning: 
The regions may not be computed correctly.
Found overlapping faces sharing edge bn236540-bn236539 (-61.750000 0.000000 2.072166).
Warning: 
The regions may not be computed correctly.
Found overlapping faces sharing edge bn236481-bn236477 (-61.750000 0.000000 -3.124936).
Warning: 
The regions may not be computed correctly.
Found overlapping faces sharing edge bn236562-bn236540 (-61.750000 0.000000 2.022440).
Warning: 
The regions may not be computed correctly.
Found overlapping faces sharing edge bn236482-bn236481 (-61.750000 0.000000 -3.174945).
Warning: 
The regions may not be computed correctly.
Found overlapping faces sharing edge bn236563-bn236562 (-61.750000 0.000000 1.972729).
Warning: 
The regions may not be computed correctly.
Found overlapping faces sharing edge bn236492-bn236482 (-61.750000 0.000000 -3.224954).
Warning: 
The regions may not be computed correctly.
Found overlapping faces sharing edge bn236578-bn236563 (-61.750000 0.000000 1.923034).
Warning: 
The regions may not be computed correctly.
Found overlapping faces sharing edge bn236493-bn236492 (-61.750000 0.000000 -3.274962).
Warning: 
The regions may not be computed correctly.
Found overlapping faces sharing edge bn236579-bn236578 (-61.750000 0.000000 1.873357).
Warning: 
The regions may not be computed correctly.
Found overlapping faces sharing edge bn236349-bn236493 (-61.750000 0.000000 -3.324980).
Warning: 
The regions may not be computed correctly.
Found overlapping faces sharing edge bn236590-bn236579 (-61.750000 0.000000 1.823698).
Warning: 
The regions may not be computed correctly.
Found overlapping faces sharing edge bn17442-bn236349 (-61.750000 0.000000 -3.374997).
Warning: 
The regions may not be computed correctly.
Found overlapping faces sharing edge bn236591-bn236590 (-61.750000 0.000000 1.774058).
Warning: 
The regions may not be computed correctly.
Found overlapping faces sharing edge bn237525-bn236591 (-61.750000 0.000000 1.724427).
Warning: 
The regions may not be computed correctly.
Found overlapping faces sharing edge bn236334-bn237525 (-61.750000 0.000000 1.674600).
Warning: 
The regions may not be computed correctly.
Found overlapping faces sharing edge bn236335-bn236334 (-61.750000 0.000000 1.624794).
Warning: 
The regions may not be computed correctly.
Found overlapping faces sharing edge bn178529-bn178293 (61.750000 0.000000 -2.272176).
Warning: 
The regions may not be computed correctly.
Found overlapping faces sharing edge bn178530-bn178529 (61.750000 0.000000 -2.220437).
Warning: 
The regions may not be computed correctly.
Found overlapping faces sharing edge bn178664-bn178530 (61.750000 0.000000 -2.167714).
Warning: 
The regions may not be computed correctly.
Found overlapping faces sharing edge bn178665-bn178664 (61.750000 0.000000 -2.113986).
Warning: 
The regions may not be computed correctly.
Found overlapping faces sharing edge bn177109-bn178665 (61.750000 0.000000 -2.057587).
Warning: 
The regions may not be computed correctly.
Found overlapping faces sharing edge bn177110-bn177109 (61.750000 0.000000 -1.997720).
Warning: 
The regions may not be computed correctly.
Found overlapping faces sharing edge bn177289-bn177110 (61.750000 0.000000 -1.936562).
Warning: 
The regions may not be computed correctly.
Found overlapping faces sharing edge bn177290-bn177289 (61.750000 0.000000 -1.875430).
Warning: 
The regions may not be computed correctly.
Found overlapping faces sharing edge bn177490-bn177290 (61.750000 0.000000 -1.814325).
Warning: 
The regions may not be computed correctly.
Found overlapping faces sharing edge bn177491-bn177490 (61.750000 0.000000 -1.753233).
Warning: 
The regions may not be computed correctly.
Found overlapping faces sharing edge bn177013-bn177491 (61.750000 0.000000 -1.691859).
Warning: 
The regions may not be computed correctly.
Found overlapping faces sharing edge bn177014-bn177013 (61.750000 0.000000 -1.630516).
Warning: 
The regions may not be computed correctly.
Found overlapping faces sharing edge bn178568-bn178560 (61.750000 0.000000 15.124940).
Warning: 
The regions may not be computed correctly.
Found overlapping faces sharing edge bn178569-bn178568 (61.750000 0.000000 15.174949).
Warning: 
The regions may not be computed correctly.
Found overlapping faces sharing edge bn178556-bn178551 (61.750000 0.000000 14.924895).
Warning: 
The regions may not be computed correctly.
Found overlapping faces sharing edge bn178571-bn178569 (61.750000 0.000000 15.224957).
Warning: 
The regions may not be computed correctly.
Found overlapping faces sharing edge bn178551-bn178550 (61.750000 0.000000 14.874882).
Warning: 
The regions may not be computed correctly.
Found overlapping faces sharing edge bn178572-bn178571 (61.750000 0.000000 15.274964).
Warning: 
The regions may not be computed correctly.
Found overlapping faces sharing edge bn177010-bn178572 (61.750000 0.000000 15.324981).
Warning: 
The regions may not be computed correctly.
Found overlapping faces sharing edge bn177011-bn177010 (61.750000 0.000000 15.374997).
Warning: 
The regions may not be computed correctly.
Found overlapping faces sharing edge bn177496-bn177026 (61.750000 0.000000 19.623882).
Warning: 
The regions may not be computed correctly.
Found overlapping faces sharing edge bn73381-bn73380 (54.750000 4.000000 13.806480).
Warning: 
The regions may not be computed correctly.
Found overlapping faces sharing edge bn73386-bn73381 (54.750000 4.000000 13.866864).
Warning: 
The regions may not be computed correctly.
Found overlapping faces sharing edge bn62706-bn62705 (54.750000 4.000000 5.430281).
Warning: 
The regions may not be computed correctly.
Found overlapping faces sharing edge bn62729-bn62706 (54.750000 4.000000 5.482287).
Warning: 
The regions may not be computed correctly.
Found overlapping faces sharing edge bn62705-bn62685 (54.750000 4.000000 5.378284).
Warning: 
The regions may not be computed correctly.
Found overlapping faces sharing edge bn55335-bn55334 (54.750000 4.000000 17.406481).
Warning: 
The regions may not be computed correctly.
Found overlapping faces sharing edge bn55347-bn55335 (54.750000 4.000000 17.466865).
Warning: 
The regions may not be computed correctly.
Found overlapping faces sharing edge bn210754-bn210687 (58.250000 2.999993 16.417706).
Warning: 
The regions may not be computed correctly.
Found overlapping faces sharing edge bn46463-bn46462 (54.750000 4.000000 3.027295).
Warning: 
The regions may not be computed correctly.
Found overlapping faces sharing edge bn46471-bn46463 (54.750000 4.000000 3.077804).
Warning: 
The regions may not be computed correctly.
Found overlapping faces sharing edge bn46450-bn46442 (54.750000 4.000000 2.875778).
Warning: 
The regions may not be computed correctly.
Found overlapping faces sharing edge bn46451-bn46450 (54.750000 4.000000 2.926369).
Warning: 
The regions may not be computed correctly.
Found overlapping faces sharing edge bn46462-bn46451 (54.750000 4.000000 2.976825).
Warning: 
The regions may not be computed correctly.
Found overlapping faces sharing edge bn46442-bn46441 (54.750000 4.000000 2.825207).
Warning: 
The regions may not be computed correctly.
Found overlapping faces sharing edge bn211279-bn211169 (58.250000 2.999891 1.960477).
Warning: 
The regions may not be computed correctly.
Found overlapping faces sharing edge bn322261-bn322260 (54.750000 2.817987 -1.600000).
Warning: 
The regions may not be computed correctly.
Found overlapping faces sharing edge bn322263-bn322261 (54.750000 2.868792 -1.600000).
Warning: 
The regions may not be computed correctly.
Found overlapping faces sharing edge bn322264-bn322263 (54.750000 2.920691 -1.600000).
Warning: 
The regions may not be computed correctly.
Found overlapping faces sharing edge bn322295-bn322264 (54.750000 2.973596 -1.600000).
Warning: 
The regions may not be computed correctly.
Found overlapping faces sharing edge bn200640-bn198966 (58.250000 0.000000 7.481501).
Warning: 
The regions may not be computed correctly.
Found overlapping faces sharing edge bn199843-bn200640 (58.250000 0.000000 7.535990).
Warning: 
The regions may not be computed correctly.
Found overlapping faces sharing edge bn199842-bn199843 (58.250000 0.000000 7.589980).
Warning: 
The regions may not be computed correctly.
Found overlapping faces sharing edge bn199837-bn199842 (58.250000 0.000000 7.643939).
Warning: 
The regions may not be computed correctly.
Found overlapping faces sharing edge bn199836-bn199837 (58.250000 0.000000 7.697892).
Warning: 
The regions may not be computed correctly.
Found overlapping faces sharing edge bn199834-bn199836 (58.250000 0.000000 7.751835).
Warning: 
The regions may not be computed correctly.
Found overlapping faces sharing edge bn199675-bn199929 (58.250000 2.519292 -1.600000).
Warning: 
The regions may not be computed correctly.
Found overlapping faces sharing edge bn198994-bn199674 (58.250000 2.420221 -1.600000).
Warning: 
The regions may not be computed correctly.
Found overlapping faces sharing edge bn199674-bn199675 (58.250000 2.469736 -1.600000).
Warning: 
The regions may not be computed correctly.
Found overlapping faces sharing edge bn198966-bn198967 (58.250000 0.000000 7.427009).
Warning: 
The regions may not be computed correctly.
Found overlapping faces sharing edge bn322233-bn322232 (54.750000 2.071766 -1.600000).
Warning: 
The regions may not be computed correctly.
Found overlapping faces sharing edge bn322235-bn322233 (54.750000 2.124497 -1.600000).
Warning: 
The regions may not be computed correctly.
Found overlapping faces sharing edge bn200189-bn200190 (58.250000 2.271947 -1.600000).
Warning: 
The regions may not be computed correctly.
Found overlapping faces sharing edge bn198993-bn198994 (58.250000 2.370750 -1.600000).
Warning: 
The regions may not be computed correctly.
Found overlapping faces sharing edge bn200190-bn198993 (58.250000 2.321324 -1.600000).
Warning: 
The regions may not be computed correctly.
Found overlapping faces sharing edge bn199183-bn200189 (58.250000 2.222620 -1.600000).
Warning: 
The regions may not be computed correctly.
Found overlapping faces sharing edge bn200202-bn200203 (58.250000 0.000000 17.526454).
Warning: 
The regions may not be computed correctly.
Found overlapping faces sharing edge bn200184-bn200202 (58.250000 0.000000 17.576619).
Warning: 
The regions may not be computed correctly.
Found overlapping faces sharing edge bn200183-bn200184 (58.250000 0.000000 17.626792).
Warning: 
The regions may not be computed correctly.
Found overlapping faces sharing edge bn199182-bn199183 (58.250000 2.173346 -1.600000).
Warning: 
The regions may not be computed correctly.
Found overlapping faces sharing edge bn199251-bn199182 (58.250000 2.124097 -1.600000).
Warning: 
The regions may not be computed correctly.
Found overlapping faces sharing edge bn199250-bn199251 (58.250000 2.074301 -1.600000).
Warning: 
The regions may not be computed correctly.
Found overlapping faces sharing edge bn198955-bn199250 (58.250000 2.024565 -1.600000).
Warning: 
The regions may not be computed correctly.
Found overlapping faces sharing edge bn200203-bn200226 (58.250000 0.000000 17.476296).
Warning: 
The regions may not be computed correctly.
Found overlapping faces sharing edge bn200247-bn200248 (58.250000 0.000000 17.325877).
Warning: 
The regions may not be computed correctly.
Found overlapping faces sharing edge bn200227-bn200247 (58.250000 0.000000 17.376008).
Warning: 
The regions may not be computed correctly.
Found overlapping faces sharing edge bn200226-bn200227 (58.250000 0.000000 17.426147).
Warning: 
The regions may not be computed correctly.
Found overlapping faces sharing edge bn200522-bn200524 (58.250000 0.000000 2.920863).
Warning: 
The regions may not be computed correctly.
Found overlapping faces sharing edge bn200521-bn200522 (58.250000 0.000000 2.978943).
Warning: 
The regions may not be computed correctly.
Found overlapping faces sharing edge bn177019-bn177020 (61.750000 0.000000 17.774997).
Warning: 
The regions may not be computed correctly.
Found overlapping faces sharing edge bn177230-bn177238 (61.750000 0.000000 8.011032).
Warning: 
The regions may not be computed correctly.
Found overlapping faces sharing edge bn177152-bn177019 (61.750000 0.000000 17.724982).
Warning: 
The regions may not be computed correctly.
Found overlapping faces sharing edge bn177229-bn177230 (61.750000 0.000000 7.957228).
Warning: 
The regions may not be computed correctly.
Found overlapping faces sharing edge bn177151-bn177152 (61.750000 0.000000 17.674967).
Warning: 
The regions may not be computed correctly.
Found overlapping faces sharing edge bn177218-bn177229 (61.750000 0.000000 7.903310).
Warning: 
The regions may not be computed correctly.
Found overlapping faces sharing edge bn177149-bn177151 (61.750000 0.000000 17.624960).
Warning: 
The regions may not be computed correctly.
Found overlapping faces sharing edge bn177217-bn177218 (61.750000 0.000000 7.849280).
Warning: 
The regions may not be computed correctly.
Found overlapping faces sharing edge bn177007-bn177008 (61.750000 0.000000 5.771547).
Warning: 
The regions may not be computed correctly.
Found overlapping faces sharing edge bn177017-bn177121 (61.750000 0.000000 17.024917).
Warning: 
The regions may not be computed correctly.
Found overlapping faces sharing edge bn177148-bn177149 (61.750000 0.000000 17.574953).
Warning: 
The regions may not be computed correctly.
Found overlapping faces sharing edge bn177209-bn177217 (61.750000 0.000000 7.795544).
Warning: 
The regions may not be computed correctly.
Found overlapping faces sharing edge bn178296-bn177007 (61.750000 0.000000 5.714474).
Warning: 
The regions may not be computed correctly.
Found overlapping faces sharing edge bn177121-bn177122 (61.750000 0.000000 17.074841).
Warning: 
The regions may not be computed correctly.
Found overlapping faces sharing edge bn177143-bn177148 (61.750000 0.000000 17.524945).
Warning: 
The regions may not be computed correctly.
Found overlapping faces sharing edge bn178295-bn178296 (61.750000 0.000000 5.657334).
Warning: 
The regions may not be computed correctly.
Found overlapping faces sharing edge bn177122-bn177127 (61.750000 0.000000 17.124855).
Warning: 
The regions may not be computed correctly.
Found overlapping faces sharing edge bn177142-bn177143 (61.750000 0.000000 17.474936).
Warning: 
The regions may not be computed correctly.
Found overlapping faces sharing edge bn178284-bn178295 (61.750000 0.000000 5.600264).
Warning: 
The regions may not be computed correctly.
Found overlapping faces sharing edge bn178556-bn178557 (61.750000 0.000000 14.974908).
Warning: 
The regions may not be computed correctly.
Found overlapping faces sharing edge bn177127-bn177128 (61.750000 0.000000 17.174869).
Warning: 
The regions may not be computed correctly.
Found overlapping faces sharing edge bn178557-bn178559 (61.750000 0.000000 15.024920).
Warning: 
The regions may not be computed correctly.
Found overlapping faces sharing edge bn177140-bn177142 (61.750000 0.000000 17.424928).
Warning: 
The regions may not be computed correctly.
Found overlapping faces sharing edge bn178238-bn178239 (61.750000 0.000000 5.083796).
Warning: 
The regions may not be computed correctly.
Found overlapping faces sharing edge bn178283-bn178284 (61.750000 0.000000 5.543134).
Warning: 
The regions may not be computed correctly.
Found overlapping faces sharing edge bn177128-bn177130 (61.750000 0.000000 17.224881).
Warning: 
The regions may not be computed correctly.
Found overlapping faces sharing edge bn177139-bn177140 (61.750000 0.000000 17.374918).
Warning: 
The regions may not be computed correctly.
Found overlapping faces sharing edge bn178239-bn178250 (61.750000 0.000000 5.141388).
Warning: 
The regions may not be computed correctly.
Found overlapping faces sharing edge bn178272-bn178283 (61.750000 0.000000 5.485937).
Warning: 
The regions may not be computed correctly.
Found overlapping faces sharing edge bn177130-bn177131 (61.750000 0.000000 17.274894).
Warning: 
The regions may not be computed correctly.
Found overlapping faces sharing edge bn177131-bn177139 (61.750000 0.000000 17.324906).
Warning: 
The regions may not be computed correctly.
Found overlapping faces sharing edge bn178250-bn178251 (61.750000 0.000000 5.198974).
Warning: 
The regions may not be computed correctly.
Found overlapping faces sharing edge bn178271-bn178272 (61.750000 0.000000 5.428675).
Warning: 
The regions may not be computed correctly.
Found overlapping faces sharing edge bn178251-bn178262 (61.750000 0.000000 5.256496).
Warning: 
The regions may not be computed correctly.
Found overlapping faces sharing edge bn178263-bn178271 (61.750000 0.000000 5.371346).
Warning: 
The regions may not be computed correctly.
Found overlapping faces sharing edge bn178262-bn178263 (61.750000 0.000000 5.313953).
Warning: 
The regions may not be computed correctly.
Found overlapping faces sharing edge bn178292-bn178293 (61.750000 0.000000 -2.322983).
Warning: 
The regions may not be computed correctly.
Found overlapping faces sharing edge bn178158-bn178292 (61.750000 0.000000 -2.373120).
Warning: 
The regions may not be computed correctly.
Found overlapping faces sharing edge bn178157-bn178158 (61.750000 0.000000 -2.422929).
Warning: 
The regions may not be computed correctly.
Found overlapping faces sharing edge bn177924-bn178157 (61.750000 0.000000 -2.472642).
Warning: 
The regions may not be computed correctly.
Found overlapping faces sharing edge bn177923-bn177924 (61.750000 0.000000 -2.522370).
Warning: 
The regions may not be computed correctly.
Found overlapping faces sharing edge bn177792-bn177923 (61.750000 0.000000 -2.572112).
Warning: 
The regions may not be computed correctly.
Found overlapping faces sharing edge bn41873-bn41865 (-54.750000 4.000000 -6.489218).
Warning: 
The regions may not be computed correctly.
Found overlapping faces sharing edge bn41865-bn41864 (-54.750000 4.000000 -6.429602).
Warning: 
The regions may not be computed correctly.
Found overlapping faces sharing edge bn60725-bn60724 (-54.750000 4.000000 -0.533136).
Warning: 
The regions may not be computed correctly.
Found overlapping faces sharing edge bn60728-bn60725 (-54.750000 4.000000 -0.593520).
Warning: 
The regions may not be computed correctly.
Found overlapping faces sharing edge bn60729-bn60728 (-54.750000 4.000000 -0.651903).
Warning: 
The regions may not be computed correctly.
Found overlapping faces sharing edge bn40347-bn40346 (-54.750000 4.000000 -14.922194).
Warning: 
The regions may not be computed correctly.
Found overlapping faces sharing edge bn40361-bn40347 (-54.750000 4.000000 -14.972703).
Warning: 
The regions may not be computed correctly.
Found overlapping faces sharing edge bn40362-bn40361 (-54.750000 4.000000 -15.023175).
Warning: 
The regions may not be computed correctly.
Found overlapping faces sharing edge bn40370-bn40362 (-54.750000 4.000000 -15.073631).
Warning: 
The regions may not be computed correctly.
Found overlapping faces sharing edge bn40382-bn40371 (-54.750000 4.000000 -15.174793).
Warning: 
The regions may not be computed correctly.
Found overlapping faces sharing edge bn40371-bn40370 (-54.750000 4.000000 -15.124222).
Warning: 
The regions may not be computed correctly.
Found overlapping faces sharing edge bn56944-bn56943 (-54.750000 4.000000 0.770426).
Warning: 
The regions may not be computed correctly.
Found overlapping faces sharing edge bn56946-bn56944 (-54.750000 4.000000 0.710835).
Warning: 
The regions may not be computed correctly.
Found overlapping faces sharing edge bn56947-bn56946 (-54.750000 4.000000 0.651903).
Warning: 
The regions may not be computed correctly.
Found overlapping faces sharing edge bn221205-bn221210 (-54.750000 2.125103 1.600000).
Warning: 
The regions may not be computed correctly.
Found overlapping faces sharing edge bn221210-bn221211 (-54.750000 2.072405 1.600000).
Warning: 
The regions may not be computed correctly.
Found overlapping faces sharing edge bn258072-bn258077 (-58.250000 0.000000 -7.859689).
Warning: 
The regions may not be computed correctly.
Found overlapping faces sharing edge bn258071-bn258072 (-58.250000 0.000000 -7.913595).
Warning: 
The regions may not be computed correctly.
Found overlapping faces sharing edge bn258066-bn258071 (-58.250000 0.000000 -7.964649).
Warning: 
The regions may not be computed correctly.
Found overlapping faces sharing edge bn258065-bn258066 (-58.250000 0.000000 -8.015828).
Warning: 
The regions may not be computed correctly.
Found overlapping faces sharing edge bn258060-bn258065 (-58.250000 0.000000 -8.069822).
Warning: 
The regions may not be computed correctly.
Found overlapping faces sharing edge bn221455-bn221456 (-54.750000 2.920777 -19.600000).
Warning: 
The regions may not be computed correctly.
Found overlapping faces sharing edge bn221453-bn221455 (-54.750000 2.868903 -19.600000).
Warning: 
The regions may not be computed correctly.
Found overlapping faces sharing edge bn221456-bn220927 (-54.750000 2.973587 -19.600000).
Warning: 
The regions may not be computed correctly.
Found overlapping faces sharing edge bn257837-bn257867 (-58.250000 2.570062 -19.600000).
Warning: 
The regions may not be computed correctly.
Found overlapping faces sharing edge bn257836-bn257837 (-58.250000 2.619810 -19.600000).
Warning: 
The regions may not be computed correctly.
Found overlapping faces sharing edge bn257822-bn257836 (-58.250000 2.669596 -19.600000).
Warning: 
The regions may not be computed correctly.
Found overlapping faces sharing edge bn257821-bn257822 (-58.250000 2.719419 -19.600000).
Warning: 
The regions may not be computed correctly.
Found overlapping faces sharing edge bn257867-bn257868 (-58.250000 2.520354 -19.600000).
Warning: 
The regions may not be computed correctly.
Found overlapping faces sharing edge bn20153-bn257827 (-58.250000 0.000000 -10.572961).
Warning: 
The regions may not be computed correctly.
Found overlapping faces sharing edge bn257868-bn257875 (-58.250000 2.470688 -19.600000).
Warning: 
The regions may not be computed correctly.
Found overlapping faces sharing edge bn257890-bn257902 (-58.250000 2.272489 -19.600000).
Warning: 
The regions may not be computed correctly.
Found overlapping faces sharing edge bn257889-bn257890 (-58.250000 2.321964 -19.600000).
Warning: 
The regions may not be computed correctly.
Found overlapping faces sharing edge bn257876-bn257889 (-58.250000 2.371490 -19.600000).
Warning: 
The regions may not be computed correctly.
Found overlapping faces sharing edge bn257875-bn257876 (-58.250000 2.421066 -19.600000).
Warning: 
The regions may not be computed correctly.
Found overlapping faces sharing edge bn258487-bn258492 (-58.250000 0.000000 -3.259665).
Warning: 
The regions may not be computed correctly.
Found overlapping faces sharing edge bn258495-bn258496 (-58.250000 0.000000 -3.086071).
Warning: 
The regions may not be computed correctly.
Found overlapping faces sharing edge bn258493-bn258495 (-58.250000 0.000000 -3.144595).
Warning: 
The regions may not be computed correctly.
Found overlapping faces sharing edge bn258492-bn258493 (-58.250000 0.000000 -3.203089).
Warning: 
The regions may not be computed correctly.
Found overlapping faces sharing edge bn221409-bn221418 (-54.750000 2.022931 -19.600000).
Warning: 
The regions may not be computed correctly.
Found overlapping faces sharing edge bn257903-bn257913 (-58.250000 2.173701 -19.600000).
Warning: 
The regions may not be computed correctly.
Found overlapping faces sharing edge bn257902-bn257903 (-58.250000 2.223067 -19.600000).
Warning: 
The regions may not be computed correctly.
Found overlapping faces sharing edge bn221418-bn221419 (-54.750000 2.075594 -19.600000).
Warning: 
The regions may not be computed correctly.
[...]
(cx-use-window-id 51)
(cx-set-camera-relative '(-0.0133061 -0.0596106 0.0347531) '(0 0 0) '(0.784339 -0.534374 -0.565128) 0 0)
(cx-use-window-id 51)
(cx-set-camera-relative '(-0.0189883 -0.00502173 0.0130521) '(0 0 0) '(0.148206 -0.35755 0.298238) 0 0)
(cx-use-window-id 51)
(cx-set-camera-relative '(-0.00389636 0.0179914 -0.0151424) '(0 0 0) '(-0.0279843 -0.165658 -0.218325) 0 0)
(cx-use-window-id 51)
(cx-set-camera-relative '(0.00237728 0.00946652 0.00771802) '(0 0 0) '(0.027933 0.0958501 0.153672) 0 0)
(cx-use-window-id 51)
(handle-key "control ??")
(cx-use-window-id 51)
(handle-key "control s")
(cx-gui-do cx-activate-item "MenuBar*WriteSubMenu*Case & Data...")
(cx-gui-do cx-set-file-dialog-entries "Select File" '( "cathod_cur.cas.h5") "CFF Case/Data Files (*.cas.h5 *.dat.h5 )")
Fast-loading "E:\Ansys\Ansys.Products.2022.R1.Win64\Program Files\ANSYS Inc\v221\fluent\fluent22.1.0\\addons\afd\lib\hdfio.bin"
Done.

Writing to DESKTOP-6MJKVPJ:"D:/Objects3D/fluent/fuelCell/H2BIKE/fluent/cathod_cur.cas.h5" in NODE0 mode and compression level 1 ...
  Writing mesh ...
      988128 cells,     1 zone  ...
     3878551 faces,     7 zones ...
     1949157 nodes,     1 zone  ...
  Done.
Done.

Writing to DESKTOP-6MJKVPJ:"D:/Objects3D/fluent/fuelCell/H2BIKE/fluent/cathod_cur.dat.h5" in NODE0 mode and compression level 1 ...
  Writing results.
Done.
(cx-gui-do cx-activate-item "MenuBar*ReadSubMenu*Case & Data...")
(cx-gui-do cx-set-file-dialog-entries "Select File" '( "anode.cas.h5") "CFF Case Files (*.cas.h5 )")
Note: Rank = 0: Process affinity not being set (6).
Note: Rank = 1: Process affinity not being set (6).
Note: Rank = 2: Process affinity not being set (6).
Note: Rank = 3: Process affinity not being set (6).
Note: Rank = 4: Process affinity not being set (6).
Note: Rank = 5: Process affinity not being set (6).
Note: Rank = 6: Process affinity not being set (6).
Note: Rank = 7: Process affinity not being set (6).

       Clearing partially read grid.

Reading from DESKTOP-6MJKVPJ:"D:/Objects3D/fluent/fuelCell/H2BIKE/fluent/anode.cas.h5" in NODE0 mode ...
  Reading mesh ...
      831927 cells,     1 cell zone  ...
         831927 polyhedra cells,  zone id: 10244
     3796713 faces,     7 face zones ...
        3609276 polygonal interior faces,  zone id: 10243
          29808 polygonal wall faces,  zone id: 35
           9644 polygonal wall faces,  zone id: 37
         138995 polygonal wall faces,  zone id: 36
           3237 polygonal wall faces,  zone id: 38
           2877 polygonal velocity-inlet faces,  zone id: 34
           2876 polygonal pressure-outlet faces,  zone id: 33
     2303313 nodes,     1 node zone  ...
  Done.


Building...
     mesh
	distributing mesh
		parts........,
		faces........,
		nodes........,
		cells........,
        bandwidth reduction using Reverse Cuthill-McKee: 106113/3749 = 28.3043
     materials,
     interface,
     domains,
	mixture
     zones,
	interior--fluent-fluent_region
	boi
	boi_cur_outer
	wall
	boi_cur_inner
	inlet
	outlet
	fluent-fluent_region
     parallel,
Done.
(cx-gui-do cx-activate-item "Warning*OK")
Surface groupings have changed. This has
resulted in surface list selection changes
for the following report definitions.
report-def-0
report-def-1
Since node values are off, changing the colormap type to "Banded".

Reading from DESKTOP-6MJKVPJ:"D:/Objects3D/fluent/fuelCell/H2BIKE/fluent/anode.dat.h5" in NODE0 mode ...


  Reading results.
Parallel variables...
Done.
(cx-gui-do cx-set-list-tree-selections "NavigationPane*Frame2*Table1*List_Tree2" (list ))
(cx-gui-do cx-set-list-tree-selections "NavigationPane*Frame2*Table1*List_Tree2" (list "Results|Graphics|Pathlines|pathlines-1"))
(cx-gui-do cx-set-list-tree-selections "NavigationPane*Frame2*Table1*List_Tree2" (list "Results|Graphics|Pathlines|pathlines-1"))
(cx-gui-do cx-activate-item "NavigationPane*Frame2*Table1*List_Tree2")
(cx-gui-do cx-set-list-tree-selections "NavigationPane*Frame2*Table1*List_Tree2" (list "Results|Graphics|Pathlines|pathlines-1"))
(cx-gui-do cx-set-list-selections "Pathlines*Frame4*List3(Release from Surfaces)" '( 0 1 2 3 4))
(cx-gui-do cx-activate-item "Pathlines*Frame4*List3(Release from Surfaces)")
(cx-gui-do cx-set-list-selections "Pathlines*Frame4*List3(Release from Surfaces)" '( 0 1 2 3))
(cx-gui-do cx-activate-item "Pathlines*Frame4*List3(Release from Surfaces)")
(cx-gui-do cx-set-list-selections "Pathlines*Frame4*List3(Release from Surfaces)" '( 0 1 2))
(cx-gui-do cx-activate-item "Pathlines*Frame4*List3(Release from Surfaces)")
(cx-gui-do cx-set-list-selections "Pathlines*Frame4*List3(Release from Surfaces)" '( 0 1))
(cx-gui-do cx-activate-item "Pathlines*Frame4*List3(Release from Surfaces)")
(cx-gui-do cx-set-list-selections "Pathlines*Frame4*List3(Release from Surfaces)" '( 0))
(cx-gui-do cx-activate-item "Pathlines*Frame4*List3(Release from Surfaces)")
(cx-gui-do cx-set-list-selections "Pathlines*Frame4*List3(Release from Surfaces)" '())
(cx-gui-do cx-activate-item "Pathlines*Frame4*List3(Release from Surfaces)")
(cx-gui-do cx-set-list-selections "Pathlines*Frame4*List3(Release from Surfaces)" '( 3))
(cx-gui-do cx-activate-item "Pathlines*Frame4*List3(Release from Surfaces)")
(cx-gui-do cx-activate-item "Pathlines*PanelButtons*PushButton1(OK)")

number tracked = 2877, incomplete = 2877
(cx-gui-do cx-activate-item "Pathlines*PanelButtons*PushButton2(Cancel)")
(cx-use-window-id 51)
(cx-set-camera-relative '(-0.00136888 0.0643792 -0.032118) '(0 0 0) '(-0.00114373 -0.39836 -0.798767) 0 0)
(cx-use-window-id 51)
(cx-set-camera-relative '(-8.29846e-05 -0.0324348 0.0171998) '(0 0 0) '(0.0971419 0.39259 0.750813) 0 0)
(cx-use-window-id 51)
(cx-set-camera-relative '(-0.000870779 5.73185e-05 -3.90001e-05) '(0 0 0) '(-0.0559304 0.00369942 -0.00249401) 0 0)
(cx-use-window-id 51)
(cx-set-camera-relative '(0.0017431 0.00366987 -0.000941657) '(0 0 0) '(-0.0353008 -0.0888869 -0.36625) 0 0)
(cx-use-window-id 51)
(cx-set-camera-relative '(7.2699e-05 0.00815339 -0.00731869) '(0 0 0) '(-0.0684066 -0.391116 -0.436368) 0 0)
(cx-use-window-id 51)
(cx-set-camera-relative '(-7.15628e-05 3.16822e-05 -0.00367508) '(0 0 0) '(-0.0604513 -0.422972 -0.134662) 0 0)
(cx-use-window-id 51)
(cx-set-camera-relative '(0.00538917 -0.00308763 0.00461624) '(0 0 0) '(0.175792 0.325331 0.0817928) 0 0)
(cx-use-window-id 51)
(cx-set-camera-relative '(-0.018662 -0.0275028 0.0205224) '(0 0 0) '(0.170989 0.553527 0.952141) 0 0)
(cx-use-window-id 51)
(cx-set-camera-relative '(0.0143509 -0.013507 -0.0057613) '(0 0 0) '(-0.215179 -0.0861976 0.414365) 0 0)
(cx-use-window-id 51)
(cx-set-camera-relative '(0.000466641 0.00379294 0.000865811) '(0 0 0) '(-0.147345 0.0945637 -0.334811) 0 0)
(cx-use-window-id 51)
(cx-set-camera-relative '(-0.000257034 -0.000178535 8.92058e-05) '(0 0 0) '(0.0398748 0.00245148 0.0176267) 0 0)
(cx-use-window-id 51)
(cx-set-camera-relative '(0.00510253 0.000158054 -0.00539893) '(0 0 0) '(0.129786 -0.00138348 0.0365977) 0 0)
(cx-use-window-id 51)
(cx-set-camera-relative '(-0.000492655 0.000104595 -0.00612943) '(0 0 0) '(0.126281 -0.00908333 -0.016587) 0 0)
(cx-use-window-id 51)
(cx-set-camera-relative '(-0.00346578 0.000432752 -0.00680111) '(0 0 0) '(0.0461446 -0.00258183 -0.0401642) 0 0)
(cx-use-window-id 51)
(cx-set-camera-relative '(-0.00298709 0.00306504 -0.00296886) '(0 0 0) '(-0.0734645 0.00244224 0.0632036) 0 0)
(cx-use-window-id 51)
(cx-set-camera-relative '(-0.00417202 0.0201552 0.00485411) '(0 0 0) '(-0.277092 -0.14079 0.346288) 0 0)
(cx-use-window-id 51)
(cx-set-camera-relative '(-0.00232246 -0.0107886 -0.00579103) '(0 0 0) '(0.224067 0.151909 -0.378361) 0 0)
(cx-use-window-id 51)
(cx-set-camera-relative '(0.0027616 -0.00014428 0.00157154) '(0 0 0) '(-0.0405034 0.00406551 -0.0118825) 0 0)
(cx-use-window-id 51)
(cx-set-camera-relative '(-0.0012778 0.0125263 0.0028093) '(0 0 0) '(-0.150322 -0.0648251 0.221323) 0 0)
(cx-use-window-id 51)
(cx-set-camera-relative '(-0.00235906 0.00502705 0.00444833) '(0 0 0) '(-0.346071 -0.553472 0.442334) 0 0)
(cx-use-window-id 51)
(cx-set-camera-relative '(-0.00157221 0.00172186 0.00146807) '(0 0 0) '(-0.0401744 -0.238539 0.0489923) 0 0)
(cx-use-window-id 51)
(cx-set-camera-relative '(0.00281597 -0.0206668 -0.0291005) '(0 0 0) '(0.226748 0.747988 -0.468262) 0 0)
(cx-use-window-id 51)
(cx-set-camera-relative '(-0.00118012 -0.0020174 -0.00110369) '(0 0 0) '(0.0528714 0.0293086 -0.0355211) 0 0)
(cx-use-window-id 51)
(cx-set-camera-relative '(-0.00274815 -0.0039874 -0.00116204) '(0 0 0) '(0.160092 0.0803276 -0.224034) 0 0)
(cx-use-window-id 51)
(cx-set-camera-relative '(0.0037334 0.00233374 0.000740495) '(0 0 0) '(-0.0106792 -0.0289544 0.139656) 0 0)
(cx-gui-do cx-set-list-tree-selections "NavigationPane*Frame2*Table1*List_Tree2" (list "Results|Graphics|Vectors|vector-1"))
(cx-gui-do cx-set-list-tree-selections "NavigationPane*Frame2*Table1*List_Tree2" (list "Results|Graphics|Vectors|vector-1"))
(cx-gui-do cx-activate-item "NavigationPane*Frame2*Table1*List_Tree2")
(cx-gui-do cx-set-list-tree-selections "NavigationPane*Frame2*Table1*List_Tree2" (list "Results|Graphics|Vectors|vector-1"))
(cx-gui-do cx-activate-item "Vectors*PanelButtons*PushButton2(Cancel)")
(cx-gui-do cx-set-list-tree-selections "NavigationPane*Frame2*Table1*List_Tree2" (list "Results|Graphics|Contours|contour-1"))
(cx-gui-do cx-set-list-tree-selections "NavigationPane*Frame2*Table1*List_Tree2" (list "Results|Graphics|Contours|contour-1"))
(cx-gui-do cx-activate-item "NavigationPane*Frame2*Table1*List_Tree2")
(cx-gui-do cx-set-list-tree-selections "NavigationPane*Frame2*Table1*List_Tree2" (list "Results|Graphics|Contours|contour-1"))
(cx-gui-do cx-set-list-selections "Contours*Table1*Frame3*Frame2*List2(Surfaces)" '( 1 2 3))
(cx-gui-do cx-activate-item "Contours*Table1*Frame3*Frame2*List2(Surfaces)")
(cx-gui-do cx-set-list-selections "Contours*Table1*Frame3*Frame2*List2(Surfaces)" '( 1 2 3 5))
(cx-gui-do cx-activate-item "Contours*Table1*Frame3*Frame2*List2(Surfaces)")
(cx-gui-do cx-set-list-selections "Contours*Table1*Frame3*Frame2*List2(Surfaces)" '( 0 1 2 3 5))
(cx-gui-do cx-activate-item "Contours*Table1*Frame3*Frame2*List2(Surfaces)")
(cx-gui-do cx-activate-item "Contours*PanelButtons*PushButton1(OK)")
(cx-gui-do cx-set-list-selections "Contours*Table1*Frame3*Frame2*List2(Surfaces)" '( 0 1 2 5))
(cx-gui-do cx-activate-item "Contours*Table1*Frame3*Frame2*List2(Surfaces)")
(cx-gui-do cx-activate-item "Contours*PanelButtons*PushButton1(OK)")
(cx-use-window-id 51)
(cx-use-window-id 51)
(cx-set-camera-relative '(6.36056e-05 0.0143287 0.00890971) '(0 0 0) '(-0.0980087 -0.269441 0.435021) 0 0)
(cx-gui-do cx-activate-item "Contours*PanelButtons*PushButton2(Cancel)")
(cx-use-window-id 51)
(cx-set-camera-relative '(-0.00279381 0.0100298 0.0166707) '(0 0 0) '(-0.0692172 -0.381218 0.218011) 0 0)
(cx-use-window-id 51)
(cx-set-camera-relative '(0.0138016 -0.0312122 -0.0324176) '(0 0 0) '(0.198862 0.585647 -0.477756) 0 0)
(cx-use-window-id 51)
(cx-set-camera-relative '(0.0884207 -0.0434403 0.0853745) '(0 0 0) '(-0.100957 0.0801495 -0.277534) 0 0)
(cx-use-window-id 51)
(cx-set-camera-relative '(-0.0115152 0.0294176 0.0357334) '(0 0 0) '(-0.365212 -0.119272 -0.0700282) 0 0)
(cx-use-window-id 51)
(cx-set-camera-relative '(-0.0168695 0.0121057 -0.00132429) '(0 0 0) '(-0.475243 -0.681652 -0.165185) 0 0)
(cx-use-window-id 51)
(cx-set-camera-relative '(-0.0128183 -0.00184854 -8.60165e-05) '(0 0 0) '(0.0847453 -0.582006 -0.10127) 0 0)
(cx-use-window-id 51)
(cx-set-camera-relative '(0.100873 0.00237035 -0.00155449) '(0 0 0) '(-0.0130892 0.814584 0.101315) 0 0)
(cx-use-window-id 51)
(cx-set-camera-relative '(0.163889 -0.184184 -0.0073522) '(0 0 0) '(0.621921 0.54848 0.119048) 0 0)
(cx-use-window-id 51)
(cx-set-camera-relative '(-0.0863217 0.0152461 -0.130172) '(0 0 0) '(0.172631 -0.0384844 0.331269) 0 0)
(cx-use-window-id 51)
(cx-set-camera-relative '(-0.00322124 0.0479631 0.0274609) '(0 0 0) '(-0.0593929 -0.101754 0.170992) 0 0)
(cx-use-window-id 51)
(cx-set-camera-relative '(0.0782777 -0.00379042 0.0741898) '(0 0 0) '(-0.0850729 -0.101525 0.0985963) 0 0)
(cx-use-window-id 51)
(cx-set-camera-relative '(-0.0565705 -0.00236414 -0.0899096) '(0 0 0) '(-0.0336209 0.116769 -0.177591) 0 0)
(cx-use-window-id 51)
(cx-use-window-id 51)
(handle-key "control ??")
(cx-use-window-id 51)
(handle-key "control s")
(cx-use-window-id 51)
(handle-key "control ??")
(cx-use-window-id 51)
(handle-key "control s")
(cx-use-window-id 51)
(handle-key "control s")
(cx-use-window-id 51)
(handle-key "control s")
(cx-gui-do cx-activate-item "MenuBar*ReadSubMenu*Case & Data...")
(cx-gui-do cx-activate-item "Question*Cancel")
(cx-use-window-id 51)
(cx-set-camera-relative '(-0.00596456 -0.0213853 -0.00964019) '(0 0 0) '(0.43617 0.153829 -0.568745) 0 0)
(cx-use-window-id 51)
(cx-set-camera-relative '(0.0025401 0.00385667 -0.0114594) '(0 0 0) '(-0.0587189 0.0107267 0.134245) 0 0)
(cx-use-window-id 51)
(cx-set-camera-relative '(-0.00491047 0.00181701 -0.00102216) '(0 0 0) '(-0.0227376 -0.00451714 0.0795035) 0 0)
(cx-use-window-id 51)
(cx-set-camera-relative '(0.000533767 -0.00461555 -0.000157163) '(0 0 0) '(0.010202 0.00601333 -0.135681) 0 0)
(cx-use-window-id 51)
(cx-set-camera-relative '(0.00413255 0.0363082 0.00927681) '(0 0 0) '(-0.082315 -0.118974 0.496768) 0 0)
(cx-gui-do cx-set-list-tree-selections "NavigationPane*Frame2*Table1*List_Tree2" (list "Results|Graphics|Pathlines|pathlines-1"))
(cx-gui-do cx-set-list-tree-selections "NavigationPane*Frame2*Table1*List_Tree2" (list "Results|Graphics|Pathlines|pathlines-1"))
(cx-gui-do cx-activate-item "NavigationPane*Frame2*Table1*List_Tree2")
(cx-gui-do cx-set-list-tree-selections "NavigationPane*Frame2*Table1*List_Tree2" (list "Results|Graphics|Pathlines|pathlines-1"))
(cx-gui-do cx-activate-item "Pathlines*PanelButtons*PushButton1(OK)")

number tracked = 2877, incomplete = 2877
(cx-gui-do cx-set-list-selections "Pathlines*Frame4*List3(Release from Surfaces)" '( 3 4))
(cx-gui-do cx-activate-item "Pathlines*Frame4*List3(Release from Surfaces)")
(cx-gui-do cx-activate-item "Pathlines*PanelButtons*PushButton1(OK)")

number tracked = 5753, escaped = 2876, incomplete = 2877
(cx-use-window-id 51)
(cx-use-window-id 51)
(cx-set-camera-relative '(-0.000323094 -0.0195822 -0.0040342) '(0 0 0) '(0.0856573 0.115075 -0.565303) 0 0)
(cx-use-window-id 51)
(cx-set-camera-relative '(0.0294844 0.0507893 0.0316193) '(0 0 0) '(-0.381572 -0.237008 0.664859) 0 0)
(cx-use-window-id 51)
(cx-set-camera-relative '(-0.0292131 -0.16443 -0.00377222) '(0 0 0) '(0.797842 -0.118044 -1.1707) 0 0)
(cx-use-window-id 51)
(cx-set-camera-relative '(0.011577 0.0442916 -0.0153135) '(0 0 0) '(-0.419114 0.352892 0.704294) 0 0)
(cx-use-window-id 51)
(cx-set-camera-relative '(-0.00495141 0.0195001 0.00272579) '(0 0 0) '(-0.173026 -0.0886929 0.307378) 0 0)
(cx-gui-do cx-set-list-selections "Pathlines*Frame3*Frame1*DropDownList1(Style)" '( 1))
(cx-gui-do cx-activate-item "Pathlines*Frame3*Frame1*DropDownList1(Style)")
(cx-gui-do cx-activate-item "Pathlines*PanelButtons*PushButton1(OK)")

number tracked = 5753, escaped = 2876, incomplete = 2877
(cx-use-window-id 51)
(cx-set-camera-relative '(-0.0869785 -0.0522979 -0.047853) '(0 0 0) '(-0.00603 0.0662017 -0.194924) 0 0)
(cx-use-window-id 51)
(cx-set-camera-relative '(0.253125 0.0206238 0.123954) '(0 0 0) '(-0.0602275 -0.00887918 0.00120962) 0 0)
(cx-use-window-id 51)
(cx-set-camera-relative '(-0.0974991 0.258169 0.148248) '(0 0 0) '(-0.690372 -0.451105 -0.155504) 0 0)
(cx-gui-do cx-set-list-selections "Pathlines*Frame3*Frame1*DropDownList1(Style)" '( 1))
(cx-gui-do cx-activate-item "Pathlines*Frame3*Frame1*DropDownList1(Style)")
(cx-gui-do cx-set-list-selections "Pathlines*Frame3*Frame1*DropDownList1(Style)" '( 0))
(cx-gui-do cx-activate-item "Pathlines*Frame3*Frame1*DropDownList1(Style)")
(cx-gui-do cx-activate-item "Pathlines*PanelButtons*PushButton1(OK)")

number tracked = 5753, escaped = 2876, incomplete = 2877
(cx-use-window-id 51)
(cx-set-camera-relative '(0.00734083 -0.0651053 -0.0642084) '(0 0 0) '(0.374915 0.343374 -0.270189) 0 0)
(cx-use-window-id 51)
(cx-set-camera-relative '(0.0369011 -0.00715355 0.0840196) '(0 0 0) '(0.498977 -0.0131661 -0.343068) 0 0)
(cx-use-window-id 51)
(cx-set-camera-relative '(-0.0475142 -0.00871006 0.0739864) '(0 0 0) '(0.40136 0.0392087 0.3097) 0 0)
(cx-use-window-id 51)
(cx-set-camera-relative '(-0.0755937 0.0659013 -0.010198) '(0 0 0) '(-0.0732793 -0.109422 -0.305036) 0 0)
(cx-use-window-id 51)
(cx-set-camera-relative '(0.00275693 -0.0235689 0.0115531) '(0 0 0) '(-0.258834 0.214085 0.375478) 0 0)
(cx-use-window-id 51)
(cx-set-camera-relative '(-0.0162474 -0.00221098 -0.0121703) '(0 0 0) '(-0.0954234 -0.00308615 -0.0362049) 0 0)
(cx-use-window-id 51)
(cx-set-camera-relative '(0.00173244 0.000781923 0.00297038) '(0 0 0) '(0.0197083 0.00319052 0.0162453) 0 0)
(cx-gui-do cx-set-list-selections "Pathlines*Frame4*List3(Release from Surfaces)" '( 3))
(cx-gui-do cx-activate-item "Pathlines*Frame4*List3(Release from Surfaces)")
(cx-gui-do cx-activate-item "Pathlines*PanelButtons*PushButton1(OK)")

number tracked = 2877, incomplete = 2877
(cx-gui-do cx-activate-item "Pathlines*PanelButtons*PushButton2(Cancel)")
(cx-use-window-id 51)
(cx-set-camera-relative '(0.017501 -0.00315092 0.0163491) '(0 0 0) '(-0.0950437 0.00835609 0.0837167) 0 0)
(cx-use-window-id 51)
(cx-set-camera-relative '(0.0304407 -0.0106284 0.00910376) '(0 0 0) '(-0.0408472 -0.0020377 0.173471) 0 0)
(cx-use-window-id 51)
(cx-set-camera-relative '(0.00285707 0.00400319 0.000127729) '(0 0 0) '(0.00682257 0.000854075 -0.146694) 0 0)
(cx-use-window-id 51)
(cx-set-camera-relative '(-0.00069049 9.13067e-05 -9.89996e-06) '(0 0 0) '(0.0178974 0.00107759 -0.0116439) 0 0)
(cx-use-window-id 51)
(cx-set-camera-relative '(0.00402616 -0.00383731 -0.000532027) '(0 0 0) '(0.0647976 -0.00554603 0.249912) 0 0)
(cx-use-window-id 51)
(cx-set-camera-relative '(-0.00087674 0.00300609 0.00126589) '(0 0 0) '(-0.0296164 0.00854045 -0.249952) 0 0)
(cx-use-window-id 51)
(cx-set-camera-relative '(-0.00447304 0.00289102 0.00649212) '(0 0 0) '(-0.00424638 -0.0131762 -0.0957381) 0 0)
(cx-use-window-id 51)
(cx-set-camera-relative '(0.000259768 -0.00333252 0.000339489) '(0 0 0) '(-0.0096687 0.0155646 0.160212) 0 0)
(cx-use-window-id 51)
(cx-set-camera-relative '(0.00330092 0.0047049 -0.000553377) '(0 0 0) '(0.00294949 -0.0219366 -0.189565) 0 0)
(cx-use-window-id 51)
(cx-set-camera-relative '(-0.00159834 0.0268015 -0.00439539) '(0 0 0) '(-0.023954 -0.176797 -0.384243) 0 0)
(cx-use-window-id 51)
(cx-set-camera-relative '(-0.000322081 0.00989305 -0.0102561) '(0 0 0) '(-0.00870373 -0.228749 -0.220593) 0 0)
(cx-use-window-id 51)
(cx-gui-do cx-activate-item "MenuBar*ReadSubMenu*Mesh...")
(cx-gui-do cx-activate-item "Read Mesh Options*PanelButtons*PushButton1(OK)")
(cx-gui-do cx-set-file-dialog-entries "Select File" '( "anode.scdoc") "All Files (*)")
Note: Rank = 0: Process affinity not being set (6).
Note: Rank = 1: Process affinity not being set (6).
Note: Rank = 2: Process affinity not being set (6).
Note: Rank = 3: Process affinity not being set (6).
Note: Rank = 4: Process affinity not being set (6).
Note: Rank = 5: Process affinity not being set (6).
Note: Rank = 6: Process affinity not being set (6).
Note: Rank = 7: Process affinity not being set (6).

Reading "D:/Objects3D/fluent/fuelCell/H2BIKE/fluent/anode.scdoc"...
Reading "D:/Objects3D/fluent/fuelCell/H2BIKE/fluent/anode.scdoc"...
Buffering for file scan...


Error: Invalid section id: 
Error Object: #f

Error: Error reading "D:/Objects3D/fluent/fuelCell/H2BIKE/fluent/anode.scdoc".
Error Object: #f

Error: access: unbound variable
Error Object: get-var
(cx-gui-do cx-activate-item "Error*OK")
(cx-gui-do cx-set-list-tree-selections "NavigationPane*Frame2*Table1*List_Tree2" (list "Setup|General"))
/exit y
Auto-Transcript Stop Time:  16:35:20, 19 Dec 2023 中国标准时间 
Total Transcript Time: 6 Hour 30 Minute 15 Second.
