Auto-Transcript Start Time:  00:18:23, 20 Dec 2023 中国标准时间 
Current Directory: "D:\Objects3D\fluent\fuelCell\H2BIKE\fluent"

              Welcome to ANSYS Fluent 2022 R1

              Copyright 1987-2022 ANSYS, Inc. All Rights Reserved.
              Unauthorized use, distribution or duplication is prohibited.
              This product is subject to U.S. laws governing export and re-export.
              For full Legal Notice, see documentation.

Build Time: Nov 29 2021 12:14:46 EST  Build Id: 10213  
 
Connected License Server List:	
Host spawning Node 0 on machine "DESKTOP-6MJKVPJ" (win64).

------------------------------------------------------------------------------------------
ID    Hostname         Core  O.S.         PID    Vendor                                  
------------------------------------------------------------------------------------------
n7    DESKTOP-6MJKVPJ  8/20  Windows-x64  15148  12th Gen Intel(R) Core(TM) i7-12700H    
n6    DESKTOP-6MJKVPJ  7/20  Windows-x64  15188  12th Gen Intel(R) Core(TM) i7-12700H    
n5    DESKTOP-6MJKVPJ  6/20  Windows-x64  17912  12th Gen Intel(R) Core(TM) i7-12700H    
n4    DESKTOP-6MJKVPJ  5/20  Windows-x64  1256   12th Gen Intel(R) Core(TM) i7-12700H    
n3    DESKTOP-6MJKVPJ  4/20  Windows-x64  20984  12th Gen Intel(R) Core(TM) i7-12700H    
n2    DESKTOP-6MJKVPJ  3/20  Windows-x64  12372  12th Gen Intel(R) Core(TM) i7-12700H    
n1    DESKTOP-6MJKVPJ  2/20  Windows-x64  19404  12th Gen Intel(R) Core(TM) i7-12700H    
n0*   DESKTOP-6MJKVPJ  1/20  Windows-x64  16692  12th Gen Intel(R) Core(TM) i7-12700H    
host  DESKTOP-6MJKVPJ        Windows-x64  10328  12th Gen Intel(R) Core(TM) i7-12700H    

MPI Option Selected: intel
Selected system interconnect: default
------------------------------------------------------------------------------------------

Cleanup script file is D:\\Objects3D\\fluent\\fuelCell\\H2BIKE\\fluent\\cleanup-fluent-DESKTOP-6MJKVPJ-10328.bat
(cx-gui-do cx-activate-tab-index "NavigationPane*Frame1(TreeTab)" 0)

Meshing> 
Importing one geom object per program-controlled and one zone per body ...
    E:\\Ansys\\Ansys.Products.2022.R1.Win64\\Program Files\\ANSYS Inc\\v221\\commonfiles\\CPython\\3_7\\winx64\\Release\\python\\..\\Ansys\\TGrid\\CADReaders.py started by MelonJam on DESKTOP-6MJKVPJ winx64 on Wed Dec 20 00:18:36 2023
    using Python 3.7.11 (remotes/origin/b0b4eda9448d622fbb214539623a7f129f39e1f4-dirty:b0b4eda, Oct 18 20) [MSC v.1920 64 bit (AMD64)]
    
    using Ansys.Meshing.FieldMesher build Nov 30 2021 12:29:41 including TGLib build Nov 12 2019 13:13:16
    
    running ANSYS TGrid CADToTGridConverter ...
    setting up parameters ...
    setting up parameters done.
    running conversion ...
    converting 1 file(s) from Workbench to FLTG using output path 'D:\\Objects3D\\fluent\\fuelCell\\H2BIKE\\fluent\\FM_DESKTOP-6MJKVPJ_1976/out17030027151976.tgf'
    converting file 'cathod.scdoc' (1 of 1) from Workbench to FLTG using output path 'D:\\Objects3D\\fluent\\fuelCell\\H2BIKE\\fluent\\FM_DESKTOP-6MJKVPJ_1976'
    importing data ...
    importing meshing model from PartMgr from file 'D:/Objects3D/fluent/fuelCell/H2BIKE/fluent/cathod.scdoc' ...
    setting enclosure and symmetry processing to False
    setting transfer named selections to True
    setting named selection prefixes to ''
    setting mixed import resolution type to 'SolidAndSurface'
    setting target application to 'FluentMeshing'
    attaching to assembly ...
    attaching to assembly done in 5.065 [s]
    Warning: ?????????
    processing assembly 'D:\\Objects3D\\fluent\\fuelCell\\H2BIKE\\fluent\\cathod.scdoc' with ID 1 and reference key '<?xml version="1.0" encoding="utf-16"?>
    <IdTable xmlns:xsd="http://www.w3.org/2001/XMLSchema" xmlns:xsi="http://www.w3.org/2001/XMLSchema-instance">
      <Table>
        <Entry>
          <Text>&lt;SnippetV1 sctype="SpaceClaim.OccurrenceMoniker`1[[SpaceClaim.IEvaluation, Core]], Core"&gt;&lt;instanceMoniker sctype="SpaceClaim.BasicMoniker`1[[SpaceClaim.IInstance, Core]], Core" refId="ee081486-b71e-45ee-8b17-979c281f2922:3983" /&gt;&lt;originalMoniker sctype="SpaceClaim.BasicMoniker`1[[SpaceClaim.IEvaluation, Core]], Core" refId="ee081486-b71e-45ee-8b17-979c281f2922:3979" /&gt;&lt;/SnippetV1&gt;</Text>
          <Id>10000</Id>
          <IsExploded>false</IsExploded>
        </Entry>
      </Table>
    </IdTable>'
    length unit = [m]
    processing part 'fluid_region' with ID 3
    processing named selection 'inlet'
    processing named selection 'outlet'
    processing named selection 'boi_cur_outer'
    processing named selection 'boi_cur_inner'
    processing named selection 'boi_cur_in_out'
    processing data ...
    removing named collections of entities ...
    removing named collections of entities stopped, no named collections selected.
    analyzing feature edges ...
    detecting feature edges, feature angle = 40 [deg] ...
        Data information
            Meshing model
                Attributes:
                    'LengthUnit': '[mm]'
                Entity summary:
                    Collection: 5
                    Component : 2
                    Body      : 1
                    Shell     : 1
                    Face      : 630
                    Loop      : 678
                    Edge      : 2024
                    Vertex    : 1348
                    Surface   : 630
                    Curve     : 2024
                Tessellation summary:
                    Face facets  : 12334
                    Edge segments: 6753
                Bounding box:
                    (-75.75000000000001, 0, -23.25) x (75.75, 4, 23.25)
                Assembly component hierarchy:
                    'D:\\Objects3D\\fluent\\fuelCell\\H2BIKE\\fluent\\cathod.scdoc'
                      'fluid_region'
                NamedCollections:
                    'inlet'
                    'outlet'
                    'boi_cur_outer'
                    'boi_cur_inner'
                    'boi_cur_in_out'
    
    
    exporting FLTG data to file 'D:\\Objects3D\\fluent\\fuelCell\\H2BIKE\\fluent\\FM_DESKTOP-6MJKVPJ_1976\\out17030027151976.tgf' ...
    writing face-based mesh file 'D:\\Objects3D\\fluent\\fuelCell\\H2BIKE\\fluent\\FM_DESKTOP-6MJKVPJ_1976\\out17030027151976.tgf' ...
    ======== Exported Data ========
    Entity summary:
        Object       : 1
        Object region: 6
        Zone         : 14
    
    running conversion done.
    running ANSYS TGrid CADToTGridConverter done.
    ran ANSYS TGrid CADToTGridConverter in 5.322 [s]

Reading "D:\Objects3D\fluent\fuelCell\H2BIKE\fluent\FM_DESKTOP-6MJKVPJ_1976/out17030027151976.tgf"...
Reading "D:\Objects3D\fluent\fuelCell\H2BIKE\fluent\FM_DESKTOP-6MJKVPJ_1976/out17030027151976.tgf"...
nodes: 12150
edges: 6685
faces: 12334
cells: 0
reading 12150 storage data (id 1, type 41, double precision binary).
generating pointers...done.
extracting boundary entities...
 12150 boundary nodes.
 12334 boundary faces.
 6 boundary face zones.
done.

preparing mesh for display...done.
analyzing boundary connectivity...done.

---------------- Import of cathod, consisting of one single part/object , complete. 
 

---------------- A local size of 0.14794922 was added to facesize_1
---- Warning--- The string 'boi' was detected in one of the selected zone names ( origin-boi_cur_in_out ). Did you intend to create a Body Of Influence?
---- Warning--- The string 'boi' was detected in one of the selected zone names ( origin-boi_cur_inner ). Did you intend to create a Body Of Influence?
---- Warning--- The string 'boi' was detected in one of the selected zone names ( origin-boi_cur_outer ). Did you intend to create a Body Of Influence?
Writing "D:\Objects3D\fluent\fuelCell\H2BIKE\fluent\FM_DESKTOP-6MJKVPJ_1976\TaskObject3.msh.h5" ...
writing 1 node zones
writing 8 edge zones 
writing 6 face zones 
done.    processing size functions/scoped sizing to create Size Field...

Writing "D:\Objects3D\fluent\fuelCell\H2BIKE\fluent\FM_DESKTOP-6MJKVPJ_1976\cathod.sf"...
Writing "D:\Objects3D\fluent\fuelCell\H2BIKE\fluent\FM_DESKTOP-6MJKVPJ_1976\cathod.sf"...
Done.


Importing one mesh object per program-controlled and one zone per body ...
    E:\\Ansys\\Ansys.Products.2022.R1.Win64\\Program Files\\ANSYS Inc\\v221\\commonfiles\\CPython\\3_7\\winx64\\Release\\python\\..\\Ansys\\TGrid\\CADReaders.py started by MelonJam on DESKTOP-6MJKVPJ winx64 on Wed Dec 20 00:18:59 2023
    using Python 3.7.11 (remotes/origin/b0b4eda9448d622fbb214539623a7f129f39e1f4-dirty:b0b4eda, Oct 18 20) [MSC v.1920 64 bit (AMD64)]
    
    using Ansys.Meshing.FieldMesher build Nov 30 2021 12:29:41 including TGLib build Nov 12 2019 13:13:16
    
    running ANSYS TGrid CADToTGridConverter ...
    setting up parameters ...
    setting up parameters done.
    running conversion ...
    converting 1 file(s) from Workbench to FLTG using output path 'D:\\Objects3D\\fluent\\fuelCell\\H2BIKE\\fluent\\FM_DESKTOP-6MJKVPJ_1976/out17030027391976.tgf'
    converting file 'cathod.scdoc.pmdb' (1 of 1) from Workbench to FLTG using output path 'D:\\Objects3D\\fluent\\fuelCell\\H2BIKE\\fluent\\FM_DESKTOP-6MJKVPJ_1976'
    importing data ...
    importing meshing model from PartMgr from file 'D:\\Objects3D\\fluent\\fuelCell\\H2BIKE\\fluent\\FM_DESKTOP-6MJKVPJ_1976\\\\cathod.scdoc.pmdb' ...
    setting enclosure and symmetry processing to False
    setting transfer named selections to True
    setting named selection prefixes to ''
    setting mixed import resolution type to 'SolidAndSurface'
    setting target application to 'FluentMeshing'
    initializing part manager from file ...
    processing assembly 'D:\\Objects3D\\fluent\\fuelCell\\H2BIKE\\fluent\\cathod.scdoc' with ID 1 and reference key '<?xml version="1.0" encoding="utf-16"?>
    <IdTable xmlns:xsd="http://www.w3.org/2001/XMLSchema" xmlns:xsi="http://www.w3.org/2001/XMLSchema-instance">
      <Table>
        <Entry>
          <Text>&lt;SnippetV1 sctype="SpaceClaim.OccurrenceMoniker`1[[SpaceClaim.IEvaluation, Core]], Core"&gt;&lt;instanceMoniker sctype="SpaceClaim.BasicMoniker`1[[SpaceClaim.IInstance, Core]], Core" refId="ee081486-b71e-45ee-8b17-979c281f2922:3983" /&gt;&lt;originalMoniker sctype="SpaceClaim.BasicMoniker`1[[SpaceClaim.IEvaluation, Core]], Core" refId="ee081486-b71e-45ee-8b17-979c281f2922:3979" /&gt;&lt;/SnippetV1&gt;</Text>
          <Id>10000</Id>
          <IsExploded>false</IsExploded>
        </Entry>
      </Table>
    </IdTable>'
    length unit = [m]
    processing part 'fluid_region' with ID 3
    processing named selection 'inlet'
    processing named selection 'outlet'
    processing named selection 'boi_cur_outer'
    processing named selection 'boi_cur_inner'
    processing named selection 'boi_cur_in_out'
    processing data ...
    loading size function background grid from file 'D:\\Objects3D\\fluent\\fuelCell\\H2BIKE\\fluent\\FM_DESKTOP-6MJKVPJ_1976\\\\cathod.sf' ...
    reading size function background grid file 'D:\\Objects3D\\fluent\\fuelCell\\H2BIKE\\fluent\\FM_DESKTOP-6MJKVPJ_1976\\\\cathod.sf' ...
     Read 414496 vertices
    initializing size function background grid done in 0.19 [s]
    tessellating 630 faces done in 5.64 [s]
    removing named collections of entities ...
    removing named collections of entities stopped, no named collections selected.
    analyzing feature edges ...
    detecting feature edges, feature angle = 40 [deg] ...
        Data information
            Meshing model
                Attributes:
                    'LengthUnit': '[mm]'
                Entity summary:
                    Collection: 5
                    Component : 2
                    Body      : 1
                    Shell     : 1
                    Face      : 630
                    Loop      : 678
                    Edge      : 2024
                    Vertex    : 1348
                    Surface   : 630
                    Curve     : 2024
                Tessellation summary:
                    Face facets  : 439992
                    Edge segments: 61222
                Bounding box:
                    (-75.75, 0, -23.25) x (75.75, 4, 23.25)
                Assembly component hierarchy:
                    'D:\\Objects3D\\fluent\\fuelCell\\H2BIKE\\fluent\\cathod.scdoc'
                      'fluid_region'
                NamedCollections:
                    'inlet'
                    'outlet'
                    'boi_cur_outer'
                    'boi_cur_inner'
                    'boi_cur_in_out'
    
    
    exporting FLTG data to file 'D:\\Objects3D\\fluent\\fuelCell\\H2BIKE\\fluent\\FM_DESKTOP-6MJKVPJ_1976\\out17030027391976.tgf' ...
    writing face-based mesh file 'D:\\Objects3D\\fluent\\fuelCell\\H2BIKE\\fluent\\FM_DESKTOP-6MJKVPJ_1976\\out17030027391976.tgf' ...
    ======== Exported Data ========
    Entity summary:
        Object       : 1
        Object region: 6
        Zone         : 14
    
    running conversion done.
    running ANSYS TGrid CADToTGridConverter done.
    ran ANSYS TGrid CADToTGridConverter in 6.662 [s]

Reading "D:\Objects3D\fluent\fuelCell\H2BIKE\fluent\FM_DESKTOP-6MJKVPJ_1976/out17030027391976.tgf"...
Reading "D:\Objects3D\fluent\fuelCell\H2BIKE\fluent\FM_DESKTOP-6MJKVPJ_1976/out17030027391976.tgf"...
nodes: 279464
edges: 60174
faces: 439992
cells: 0
reading 279464 storage data (id 1, type 41, double precision binary).
appending mesh...
done.
generating pointers...done.
extracting boundary entities...
 291614 boundary nodes.
 452326 boundary faces.
 12 boundary face zones.
done.

Reading "D:\Objects3D\fluent\fuelCell\H2BIKE\fluent\FM_DESKTOP-6MJKVPJ_1976\\cathod.sf"...
Reading "D:\Objects3D\fluent\fuelCell\H2BIKE\fluent\FM_DESKTOP-6MJKVPJ_1976\\cathod.sf"...
 Read 414496 vertices
0 faces marked.

    computing regions...done
Deleting import_curvature_0
Deleting import_proximity_0
    processing size functions/scoped sizing to create Size Field...

Writing "D:\Objects3D\fluent\fuelCell\H2BIKE\fluent\FM_DESKTOP-6MJKVPJ_1976\cathod.sf"...
Writing "D:\Objects3D\fluent\fuelCell\H2BIKE\fluent\FM_DESKTOP-6MJKVPJ_1976\cathod.sf"...
Done.


remeshing...


------------------------- --------------------- -------------------- ---------------- ----------
                     name skewed-cells (> 0.80)    averaged-skewness maximum-skewness face count
------------------------- --------------------- -------------------- ---------------- ----------
      fluid_region-region                   180          0.060006591       0.92760526     258218

------------------------- --------------------- -------------------- ---------------- ----------
                     name skewed-cells (> 0.80)    averaged-skewness maximum-skewness face count
------------------------- --------------------- -------------------- ---------------- ----------
      fluid_region-region                   180          0.060006591       0.92760526     258218


---------------- After Surface mesh, the model consists of 1 fluid/solid regions and 0 voids.

---------------- Surface Meshing of cathod complete in  0.45 minutes, with a maximum skewness of  0.93. 

---- Warning--- To improve the quality, insert the 'Improve Surface Mesh' task

Writing "D:\Objects3D\fluent\fuelCell\H2BIKE\fluent\FM_DESKTOP-6MJKVPJ_1976\TaskObject5.msh.h5" ...
writing 3 node zones
writing 16 edge zones 
writing 12 face zones 
done.---- Warning--- The model only have one object. Share Topology might not be needed
0 pair(s) found.

    computing regions...done
0 faces marked.
Deleting import_curvature_0
Deleting import_proximity_0
    processing size functions/scoped sizing to create Size Field...

Writing "D:\Objects3D\fluent\fuelCell\H2BIKE\fluent\FM_DESKTOP-6MJKVPJ_1976\fluid_region-region.sf"...
Writing "D:\Objects3D\fluent\fuelCell\H2BIKE\fluent\FM_DESKTOP-6MJKVPJ_1976\fluid_region-region.sf"...
Done.


remeshing...


------------------------- --------------------- -------------------- ---------------- ----------
                     name skewed-cells (> 0.80)    averaged-skewness maximum-skewness face count
------------------------- --------------------- -------------------- ---------------- ----------
      fluid_region-region                     0          0.058586008       0.61122041     256886

------------------------- --------------------- -------------------- ---------------- ----------
                     name skewed-cells (> 0.80)    averaged-skewness maximum-skewness face count
------------------------- --------------------- -------------------- ---------------- ----------
      fluid_region-region                     0          0.058586008       0.61122041     256886


---------------- Surface Quality improvement of fluid_region-region complete in :  0.02 minutes. The final maximum surface skewness is  0.61. 


---------------- Velocity-inlet zone type was automatically assigned to zones containing the string 'inlet'.

---------------- Pressure-outlet zone type was automatically assigned to zones containing the string 'outlet'.

---------------- After Surface mesh, the model consists of 1 fluid/solid regions and 0 voids.

---------------- Share Topology of fluid_region-region complete in  0.30 minutes with a maximum skewness of  0.61. 


---------------- Boundary Conditions Updated

---------------- Regions Updated

Created Scoped Prism: smooth-transition_1

---------------- Inflation control added to fluid_region-region
Writing "D:\Objects3D\fluent\fuelCell\H2BIKE\fluent\FM_DESKTOP-6MJKVPJ_1976\TaskObject11.msh.h5" ...
writing 10 node zones
writing 22 edge zones 
writing 12 face zones 
done.
    updating regions...
    done.
checking object "fluid_region-region"...
    skipping validating regions of mesh object "fluid_region-region"...done.
auto meshing object fluid_region-region...

processing scoped prisms...
    starting orientation...done.
    setting prism growth...done.
done.
Identifying Topology...

Generating Prisms...

Generating initial mesh...
.


Refining mesh...

Create polyhedra ...
.

.

.

.

.


Merging Domains...
done.

Quality Measure has been changed to Orthogonal Quality.
                     name       id cells (quality < 0.10)  minimum quality cell count
------------------------- -------- ---------------------- ---------------- ----------
      fluid_region-region    32587                      0       0.10049595     714147

                     name       id cells (quality < 0.10)  minimum quality cell count
------------------------- -------- ---------------------- ---------------- ----------
          Overall Summary     none                      0       0.10049595     714147

[Quality Measure : Orthogonal Quality]

---------------- 714147 cells were created in :  0.45 minutes

---------------- The mesh has a minimum Orthogonal Quality of:  0.10 

---------------- The volume meshing of fluid_region-region is complete.

(cx-gui-do cx-activate-item "Ribbon*Frame1*Frame2(Task Page)*Table1*Table3(Solution)*PushButton1(Switch to Solution)")
(cx-gui-do cx-activate-item "Question*OK")

Inhomogeneous process distribution on multiple machines.
Or processes per machine not an exact multiple of GPGPU's per machine.
Or not enough GPGPU's per machine.
GPGPU computing disabled.


unused zone boundary-node-18 removed
unused zone boundary-node-17080 removed
unused zone boundary-node-17082 removed
unused zone boundary-node-17084 removed
unused zone boundary-node-17086 removed
unused zone boundary-node-17088 removed
unused zone boundary-node-17090 removed
unused zone boundary-node-32557 removed
Note: Rank = 0: Process affinity not being set (6).
Note: Rank = 1: Process affinity not being set (6).
Note: Rank = 2: Process affinity not being set (6).
Note: Rank = 3: Process affinity not being set (6).
Note: Rank = 4: Process affinity not being set (6).
Note: Rank = 5: Process affinity not being set (6).
Note: Rank = 6: Process affinity not being set (6).
Note: Rank = 7: Process affinity not being set (6).

Transferring mesh
	creating threads... done
	transferring nodes... done
	transferring cells... done
	transferring faces... done
	post mesh transfer operations... done
done

Building...
     mesh
	auto partitioning mesh by Metis (fast),
	distributing mesh
		parts........,
		faces........,
		nodes........,
		cells........,
        bandwidth reduction using Reverse Cuthill-McKee: 92204/2609 = 35.3407
     materials,
     interface,
     domains,
     zones,
	interior--fluid_region-region
	boi_cur_outer
	boi_cur_in_out
	boi_cur_inner
	s1
	outlet
	inlet
	fluid_region-region
     surfaces,
     parallel,
Done.
Mesh is now scaled to meters.

Preparing mesh for display...
Done.
(cx-gui-do cx-activate-tab-index "NavigationPane*Frame1(TreeTab)" 1)
(newline)


> (cx-gui-do cx-activate-item "ToolBar*Mesh Display*fl_mesh_svg_graphics_toolbar")
(cx-gui-do cx-set-toggle-button2 "Mesh Display*Table1*Frame1*Frame1*ToggleBox1(Options)*CheckButton2(Edges)" #t)
(cx-gui-do cx-activate-item "Mesh Display*Table1*Frame1*Frame1*ToggleBox1(Options)*CheckButton2(Edges)")
(cx-gui-do cx-activate-item "Mesh Display*PanelButtons*PushButton1(OK)")
(cx-use-window-id 51)
(cx-use-window-id 51)
(cx-set-camera-relative '(-0.00730422 -0.0123978 0.0130059) '(0 0 0) '(0.160187 0.207726 0.281804) 0 0)
(cx-use-window-id 51)
(cx-set-camera-relative '(0.00270591 0.0330051 -0.0251705) '(0 0 0) '(-0.144473 -0.274869 -0.378395) 0 0)
(cx-gui-do cx-activate-item "Mesh Display*PanelButtons*PushButton2(Cancel)")
(cx-gui-do cx-set-list-tree-selections "NavigationPane*Frame2*Table1*List_Tree2" (list "Setup|Models|Viscous (SST k-omega)"))
(cx-gui-do cx-set-list-tree-selections "NavigationPane*Frame2*Table1*List_Tree2" (list "Setup|Models|Viscous (SST k-omega)"))
(cx-gui-do cx-activate-item "NavigationPane*Frame2*Table1*List_Tree2")
(cx-gui-do cx-set-list-tree-selections "NavigationPane*Frame2*Table1*List_Tree2" (list "Setup|Models|Viscous (SST k-omega)"))
(cx-gui-do cx-set-toggle-button2 "Viscous Model*Table1*ToggleBox1(Model)*Laminar" #t)
(cx-gui-do cx-activate-item "Viscous Model*Table1*ToggleBox1(Model)*Laminar")
(cx-gui-do cx-activate-item "Viscous Model*PanelButtons*PushButton1(OK)")
(cx-gui-do cx-set-list-tree-selections "NavigationPane*Frame2*Table1*List_Tree2" (list "Setup|Models|Species (Off)"))
(cx-gui-do cx-set-list-tree-selections "NavigationPane*Frame2*Table1*List_Tree2" (list "Setup|Models|Species (Off)"))
(cx-gui-do cx-activate-item "NavigationPane*Frame2*Table1*List_Tree2")
(cx-gui-do cx-set-list-tree-selections "NavigationPane*Frame2*Table1*List_Tree2" (list "Setup|Models|Species (Off)"))
(cx-gui-do cx-activate-tab-index "Species Model*Table2*Frame3" 0)
(cx-gui-do cx-activate-tab-index "Species Model*Table2*Frame3" 1)
(cx-gui-do cx-activate-tab-index "Species Model*Table2*Frame3" 0)
(cx-gui-do cx-activate-tab-index "Species Model*Table2*Frame3" 2)
(cx-gui-do cx-activate-tab-index "Species Model*Table2*Frame3" 0)
(cx-gui-do cx-activate-tab-index "Species Model*Table2*Frame4(PDF Table Creation)" 0)
(cx-gui-do cx-activate-tab-index "Species Model*Table2*Frame4(PDF Table Creation)" 1)
(cx-gui-do cx-activate-tab-index "Species Model*Table2*Frame4(PDF Table Creation)" 0)
(cx-gui-do cx-activate-tab-index "Species Model*Table2*Frame4(PDF Table Creation)" 2)
(cx-gui-do cx-activate-tab-index "Species Model*Table2*Frame4(PDF Table Creation)" 0)
(cx-gui-do cx-activate-tab-index "Species Model*Table2*Frame4(PDF Table Creation)" 3)
(cx-gui-do cx-activate-tab-index "Species Model*Table2*Frame4(PDF Table Creation)" 0)
(cx-gui-do cx-activate-tab-index "Species Model*Table2*Frame4(PDF Table Creation)" 4)
(cx-gui-do cx-activate-tab-index "Species Model*Table2*Frame4(PDF Table Creation)" 0)
(cx-gui-do cx-activate-tab-index "Species Model*Table2*Frame4(PDF Table Creation)" 5)
(cx-gui-do cx-activate-tab-index "Species Model*Table2*Frame4(PDF Table Creation)" 0)
(cx-gui-do cx-activate-tab-index "Species Model*Table2*Frame4(PDF Table Creation)" 6)
(cx-gui-do cx-activate-tab-index "Species Model*Table2*Frame4(PDF Table Creation)" 0)
(cx-gui-do cx-set-toggle-button2 "Species Model*Table1*ToggleBox1(Model)*Species Transport" #t)
(cx-gui-do cx-activate-item "Species Model*Table1*ToggleBox1(Model)*Species Transport")
(cx-gui-do cx-activate-item "Species Model*PanelButtons*PushButton1(OK)")

Adjusting the following setting:
Density explicit underrelaxation factor: from:     1   to:  0.25

Note: Enabling energy equation as required by material density method.
(cx-gui-do cx-set-list-tree-selections "NavigationPane*Frame2*Table1*List_Tree2" (list "Setup|Models|Species (Species Transport)"))
(cx-gui-do cx-set-list-tree-selections "NavigationPane*Frame2*Table1*List_Tree2" (list "Setup|Materials|Mixture"))
(cx-gui-do cx-set-list-tree-selections "NavigationPane*Frame2*Table1*List_Tree2" (list "Setup|Boundary Conditions|Inlet"))
(cx-gui-do cx-set-list-tree-selections "NavigationPane*Frame2*Table1*List_Tree2" (list "Setup|Boundary Conditions|Inlet"))
(cx-gui-do cx-activate-item "NavigationPane*Frame2*Table1*List_Tree2")
(cx-gui-do cx-set-list-tree-selections "NavigationPane*Frame2*Table1*List_Tree2" (list "Setup|Boundary Conditions|Inlet"))
(cx-gui-do cx-activate-tab-index "Velocity Inlet*Frame2*Frame2" 0)
(cx-gui-do cx-activate-tab-index "Velocity Inlet*Frame2*Frame2" 1)
(cx-gui-do cx-activate-tab-index "Velocity Inlet*Frame2*Frame2" 0)
(cx-gui-do cx-activate-tab-index "Velocity Inlet*Frame2*Frame2" 2)
(cx-gui-do cx-activate-tab-index "Velocity Inlet*Frame2*Frame2" 0)
(cx-gui-do cx-activate-tab-index "Velocity Inlet*Frame2*Frame2" 3)
(cx-gui-do cx-activate-tab-index "Velocity Inlet*Frame2*Frame2" 0)
(cx-gui-do cx-activate-tab-index "Velocity Inlet*Frame2*Frame2" 4)
(cx-gui-do cx-activate-tab-index "Velocity Inlet*Frame2*Frame2" 0)
(cx-gui-do cx-activate-tab-index "Velocity Inlet*Frame2*Frame2" 5)
(cx-gui-do cx-activate-tab-index "Velocity Inlet*Frame2*Frame2" 0)
(cx-gui-do cx-activate-tab-index "Velocity Inlet*Frame2*Frame2" 6)
(cx-gui-do cx-activate-tab-index "Velocity Inlet*Frame2*Frame2" 0)
(cx-gui-do cx-activate-tab-index "Velocity Inlet*Frame2*Frame2" 7)
(cx-gui-do cx-activate-tab-index "Velocity Inlet*Frame2*Frame2" 0)
(cx-gui-do cx-activate-tab-index "Velocity Inlet*Frame2*Frame2" 8)
(cx-gui-do cx-activate-tab-index "Velocity Inlet*Frame2*Frame2" 0)
(cx-gui-do cx-enable-apply-button "Velocity Inlet")
(cx-gui-do cx-set-expression-entry "Velocity Inlet*Frame2*Frame2*Frame1(Momentum)*Table1*Table8*ExpressionEntry1(Velocity Magnitude)" '("0.88" . 0))
(cx-gui-do cx-activate-tab-index "Velocity Inlet*Frame2*Frame2" 1)
(cx-gui-do cx-activate-tab-index "Velocity Inlet*Frame2*Frame2" 3)
(cx-gui-do cx-set-expression-entry "Velocity Inlet*Frame2*Frame2*Frame4(Species)*Table1*Table2(Species Mass Fractions)*Table1*ExpressionEntry1(h2o)" '("0" . 0))
(cx-gui-do cx-set-toggle-button2 "Velocity Inlet*Frame2*Frame2*Frame4(Species)*Table1*CheckButton1(Specify Species in Mole Fractions)" #t)
(cx-gui-do cx-activate-item "Velocity Inlet*Frame2*Frame2*Frame4(Species)*Table1*CheckButton1(Specify Species in Mole Fractions)")
(cx-gui-do cx-set-expression-entry "Velocity Inlet*Frame2*Frame2*Frame4(Species)*Table1*Table2(Species Mass Fractions)*Table1*ExpressionEntry1(h2o)" '("0.02" . 0))
(cx-gui-do cx-set-expression-entry "Velocity Inlet*Frame2*Frame2*Frame4(Species)*Table1*Table2(Species Mass Fractions)*Table2*ExpressionEntry1(o2)" '("0.21" . 0))
(cx-gui-do cx-activate-item "Velocity Inlet*PanelButtons*PushButton1(OK)")
(cx-gui-do cx-activate-item "Velocity Inlet*PanelButtons*PushButton2(Cancel)")
(cx-gui-do cx-set-list-tree-selections "NavigationPane*Frame2*Table1*List_Tree2" (list "Solution|Report Definitions"))
(cx-gui-do cx-set-list-tree-selections "NavigationPane*Frame2*Table1*List_Tree2" (list "Solution|Report Definitions"))
(cx-gui-do cx-list-tree-right-click "NavigationPane*Frame2*Table1*List_Tree2" )
(cx-gui-do cx-set-list-tree-selections "NavigationPane*Frame2*Table1*List_Tree2" (list "Solution|Report Definitions"))
(cx-gui-do cx-set-list-tree-selections "NavigationPane*Frame2*Table1*List_Tree2" (list "Solution|Report Definitions"))
(cx-gui-do cx-activate-item "NavigationPane*Frame2*Table1*List_Tree2")
(cx-gui-do cx-set-list-tree-selections "NavigationPane*Frame2*Table1*List_Tree2" (list "Solution|Report Definitions"))
(cx-gui-do cx-activate-item "Report Definitions*Table1*ButtonBox3*PushButton1(New)")
(cx-gui-do cx-activate-item "MenuBar*Surface ReportSubMenu*Area-Weighted Average...")
(cx-gui-do cx-set-list-selections "Surface Report Definition*Table1*Table2*Table6*List1(Surfaces)" '( 4))
(cx-gui-do cx-activate-item "Surface Report Definition*Table1*Table2*Table6*List1(Surfaces)")
(cx-gui-do cx-activate-item "Surface Report Definition*PanelButtons*PushButton1(OK)")
(cx-gui-do cx-activate-item "Report Definitions*PanelButtons*PushButton1(Close)")
(cx-gui-do cx-set-list-tree-selections "NavigationPane*Frame2*Table1*List_Tree2" (list "Solution|Initialization"))
(cx-gui-do cx-set-list-tree-selections "NavigationPane*Frame2*Table1*List_Tree2" (list "Solution|Initialization"))
(cx-gui-do cx-set-list-tree-selections "NavigationPane*Frame2*Table1*List_Tree2" (list "Solution|Initialization"))
(cx-gui-do cx-activate-item "NavigationPane*Frame2*Table1*List_Tree2")
(cx-gui-do cx-set-list-tree-selections "NavigationPane*Frame2*Table1*List_Tree2" (list "Solution|Initialization"))
(cx-gui-do cx-activate-item "Solution Initialization*Table1*Frame12*PushButton2(Initialize)")

Initialize using the hybrid initialization method.

Checking case topology... 
-This case has both inlets & outlets 
-Pressure information is not available at the boundaries.
 Case will be initialized with constant pressure

	iter		scalar-0

	1		1.000000e+00
	2		6.208652e-05
	3		1.610332e-05
	4		8.628100e-06
	5		5.132399e-06
	6		2.741613e-06
	7		3.894733e-06
	8		1.461731e-06
	9		7.787572e-06
	10		2.070510e-06

Hybrid initialization is done.

Warning: convergence tolerance of 1.000000e-06 not reached
during Hybrid Initialization.

Note: Settings to improve the robustness of pathline and
      particle tracking have been automatically enabled.

(cx-gui-do cx-set-list-tree-selections "NavigationPane*Frame2*Table1*List_Tree2" (list "Solution|Run Calculation"))
(cx-gui-do cx-set-list-tree-selections "NavigationPane*Frame2*Table1*List_Tree2" (list "Solution|Run Calculation"))
(cx-gui-do cx-activate-item "NavigationPane*Frame2*Table1*List_Tree2")
(cx-gui-do cx-set-list-tree-selections "NavigationPane*Frame2*Table1*List_Tree2" (list "Solution|Run Calculation"))
(cx-use-window-id 51)
(cx-set-camera-relative '(-0.0161111 0.00984124 -0.0175349) '(0 0 0) '(-0.062248 -0.519924 -0.232203) 0 0)
(cx-use-window-id 51)
(cx-set-camera-relative '(0.0077416 -0.00284751 0.00793368) '(0 0 0) '(0.0167164 0.296852 0.0902113) 0 0)
(cx-use-window-id 51)
(cx-set-camera-relative '(-0.000904385 0.0311236 0.000682715) '(0 0 0) '(-0.0185236 -0.178112 -0.062864) 0 0)
(cx-use-window-id 51)
(cx-set-camera-relative '(-0.00798744 -0.0248043 0.0256864) '(0 0 0) '(0.375985 0.458462 0.105624) 0 0)
(cx-use-window-id 51)
(cx-use-window-id 51)
(cx-set-camera-relative '(0.00511304 0.00783139 -0.00947443) '(0 0 0) '(0.00467867 -0.157672 -0.129266) 0 0)
(cx-use-window-id 51)
(cx-set-camera-relative '(0.00251641 0.0105101 -0.0208628) '(0 0 0) '(-0.0170843 -0.175457 -0.0877684) 0 0)
(cx-use-window-id 51)
(cx-set-camera-relative '(0.00541114 -0.0174544 0.0220543) '(0 0 0) '(0.0660081 0.443048 0.334571) 0 0)
(cx-use-window-id 51)
(cx-set-camera-relative '(-0.000351023 -0.0372554 0.0172891) '(0 0 0) '(0.0688478 0.168138 0.363044) 0 0)
(cx-use-window-id 51)
(cx-set-camera-relative '(-0.00239617 0.0598801 -0.032553) '(0 0 0) '(-0.0902956 -0.258351 -0.46766) 0 0)
(cx-use-window-id 51)
(cx-set-camera-relative '(-0.00255489 0.00757007 -0.00881977) '(0 0 0) '(-0.0244539 -0.165374 -0.134827) 0 0)
(cx-use-window-id 51)
(cx-set-camera-relative '(0.00445694 -0.0167544 0.0179612) '(0 0 0) '(0.0378241 0.224921 0.200479) 0 0)
(cx-use-window-id 51)
(cx-use-window-id 51)
(cxg-clear-all-selections (cx-active-window))
(cxg-add-surfaces-to-selection '(inlet) (cx-active-window))
(cx-use-window-id 51)
(cx-gui-do cx-activate-item "ToolBar*Mesh Display*fl_mesh_svg_graphics_toolbar")
(cx-gui-do cx-set-list-selections "Mesh Display*Table1*Frame3*List1(Surfaces)" '( 0 1 3 4 5))
(cx-gui-do cx-activate-item "Mesh Display*Table1*Frame3*List1(Surfaces)")
(cx-gui-do cx-set-list-selections "Mesh Display*Table1*Frame3*List1(Surfaces)" '( 0 3 4 5))
(cx-gui-do cx-activate-item "Mesh Display*Table1*Frame3*List1(Surfaces)")
(cx-gui-do cx-set-list-selections "Mesh Display*Table1*Frame3*List1(Surfaces)" '( 3 4 5))
(cx-gui-do cx-activate-item "Mesh Display*Table1*Frame3*List1(Surfaces)")
(cx-gui-do cx-activate-item "Mesh Display*PanelButtons*PushButton1(OK)")
(cxg-clear-all-selections (cx-active-window))
(cxg-add-surfaces-to-selection '() (cx-active-window))
(cx-use-window-id 51)
(cx-gui-do cx-set-list-selections "Mesh Display*Table1*Frame3*List1(Surfaces)" '( 3 4))
(cx-gui-do cx-activate-item "Mesh Display*Table1*Frame3*List1(Surfaces)")
(cx-gui-do cx-activate-item "Mesh Display*PanelButtons*PushButton1(OK)")
(cx-use-window-id 51)
(cx-use-window-id 51)
(cx-set-camera-relative '(-0.00179764 -0.0214023 0.00918926) '(0 0 0) '(0.0752279 0.217506 0.520653) 0 0)
(cx-use-window-id 51)
(cx-set-camera-relative '(0.00287268 0.0905336 -0.0422596) '(0 0 0) '(-0.0467069 -0.268055 -0.584115) 0 0)
(cx-gui-do cx-activate-item "Mesh Display*PanelButtons*PushButton2(Cancel)")
(cx-use-window-id 51)
(cx-gui-do cx-set-list-tree-selections "NavigationPane*Frame2*Table1*List_Tree2" (list "Solution|Run Calculation"))
(cx-gui-do cx-set-list-tree-selections "NavigationPane*Frame2*Table1*List_Tree2" (list "Solution|Run Calculation"))
(cx-gui-do cx-activate-item "NavigationPane*Frame2*Table1*List_Tree2")
(cx-gui-do cx-set-list-tree-selections "NavigationPane*Frame2*Table1*List_Tree2" (list "Solution|Run Calculation"))
(cx-gui-do cx-set-integer-entry "Run Calculation*Table1*Table3(Parameters)*Table1*Table1*IntegerEntry1(Number of Iterations)" 150)
(cx-gui-do cx-activate-item "Run Calculation*Table1*Table3(Parameters)*Table1*Table1*IntegerEntry1(Number of Iterations)")
(cx-gui-do cx-activate-item "Run Calculation*Table1*Table6(Solution Advancement)*Table1*PushButton1(Calculate)")

(cx-gui-do cx-activate-item "Question*OK")
Creating new file D:\Objects3D\fluent\fuelCell\H2BIKE\fluent\.\\report-def-0-rfile_13_1.out

  iter  continuity  x-velocity  y-velocity  z-velocity      energy         h2o          o2     time/iter
     1  1.0000e+00  4.8968e-03  8.5584e-04  1.7424e-03  1.8282e-07  4.3064e-06  8.0315e-05  0:07:27  149
     2  6.8951e-01  5.0138e-03  7.0988e-04  1.4486e-03  1.2533e-06  1.2345e-02  1.2345e-02  0:08:23  148
     3  5.6535e-01  4.2097e-03  5.6028e-04  1.0872e-03  2.1291e-06  1.2990e-02  1.2990e-02  0:08:37  147

 Reversed flow on 37 faces (0.6% area) of pressure-outlet 29.
     4  4.5931e-01  3.4048e-03  4.5479e-04  8.5542e-04  1.0611e-06  4.9454e-03  4.9454e-03  0:10:16  146

 Reversed flow on 77 faces (1.2% area) of pressure-outlet 29.
     5  4.3277e-01  2.4524e-03  3.6616e-04  6.0037e-04  4.9209e-07  2.0006e-03  2.0006e-03  0:11:03  145

 Reversed flow on 190 faces (4.4% area) of pressure-outlet 29.
     6  4.4338e-01  1.8734e-03  3.2454e-04  4.5798e-04  2.3647e-07  1.1430e-03  1.1430e-03  0:11:40  144

 Reversed flow on 282 faces (8.9% area) of pressure-outlet 29.
     7  4.3275e-01  1.5022e-03  2.9251e-04  3.7126e-04  1.5350e-07  7.9291e-04  7.9291e-04  0:12:07  143

 Reversed flow on 354 faces (13.3% area) of pressure-outlet 29.
     8  4.4263e-01  1.3391e-03  2.6970e-04  3.3641e-04  1.2282e-07  6.7456e-04  6.7456e-04  0:11:03  142

 Reversed flow on 409 faces (17.7% area) of pressure-outlet 29.
     9  4.0909e-01  1.1052e-03  2.5168e-04  2.8152e-04  1.1331e-07  5.9628e-04  5.9628e-04  0:10:11  141

 Reversed flow on 439 faces (21.1% area) of pressure-outlet 29.
    10  3.7618e-01  9.6230e-04  2.3265e-04  2.5044e-04  9.6847e-08  4.6030e-04  4.6030e-04  0:10:26  140

 Reversed flow on 463 faces (24.6% area) of pressure-outlet 29.
    11  3.7690e-01  9.7752e-04  2.2180e-04  2.5353e-04  8.1112e-08  3.7010e-04  3.7010e-04  0:09:40  139

 Reversed flow on 479 faces (27.6% area) of pressure-outlet 29.

  iter  continuity  x-velocity  y-velocity  z-velocity      energy         h2o          o2     time/iter
    12  3.6729e-01  8.8821e-04  2.1494e-04  2.3060e-04  7.2399e-08  3.3715e-04  3.3715e-04  0:09:31  138

 Reversed flow on 494 faces (30.8% area) of pressure-outlet 29.
    13  3.6441e-01  8.4225e-04  2.0830e-04  2.2124e-04  6.4327e-08  3.0645e-04  3.0645e-04  0:08:29  137

 Reversed flow on 505 faces (33.3% area) of pressure-outlet 29.
    14  3.5441e-01  7.6271e-04  2.0123e-04  2.0506e-04  5.7281e-08  2.7856e-04  2.7856e-04  0:08:05  136

 Reversed flow on 518 faces (37.5% area) of pressure-outlet 29.
    15  3.3948e-01  6.8750e-04  1.9241e-04  1.9109e-04  5.3141e-08  2.4382e-04  2.4382e-04  0:07:46  135

 Reversed flow on 526 faces (40.0% area) of pressure-outlet 29.
    16  3.2466e-01  6.3501e-04  1.8179e-04  1.8211e-04  4.7983e-08  2.1802e-04  2.1802e-04  0:07:31  134

 Reversed flow on 532 faces (42.4% area) of pressure-outlet 29.
    17  3.1155e-01  5.8810e-04  1.7379e-04  1.7406e-04  4.3868e-08  2.0633e-04  2.0633e-04  0:07:18  133

 Reversed flow on 540 faces (46.6% area) of pressure-outlet 29.
    18  3.0262e-01  5.5004e-04  1.6488e-04  1.6545e-04  4.0790e-08  1.9976e-04  1.9976e-04  0:07:07  132

 Reversed flow on 543 faces (47.8% area) of pressure-outlet 29.
    19  2.9540e-01  5.2044e-04  1.5465e-04  1.5897e-04  3.6409e-08  1.9272e-04  1.9272e-04  0:06:57  131

 Reversed flow on 548 faces (51.0% area) of pressure-outlet 29.
    20  2.8659e-01  4.8557e-04  1.4419e-04  1.5093e-04  3.3780e-08  1.9381e-04  1.9381e-04  0:06:23  130

 Reversed flow on 552 faces (53.2% area) of pressure-outlet 29.
    21  2.7208e-01  4.3539e-04  1.3414e-04  1.3855e-04  3.1845e-08  1.9478e-04  1.9478e-04  0:05:56  129

 Reversed flow on 559 faces (56.7% area) of pressure-outlet 29.
    22  2.5623e-01  3.9955e-04  1.2530e-04  1.2920e-04  2.8697e-08  1.7860e-04  1.7860e-04  0:05:59  128

 Reversed flow on 560 faces (57.4% area) of pressure-outlet 29.

  iter  continuity  x-velocity  y-velocity  z-velocity      energy         h2o          o2     time/iter
    23  2.4181e-01  3.7189e-04  1.1787e-04  1.2182e-04  2.6347e-08  1.6198e-04  1.6198e-04  0:06:01  127

 Reversed flow on 562 faces (58.6% area) of pressure-outlet 29.
    24  2.3034e-01  3.4876e-04  1.1053e-04  1.1523e-04  2.4700e-08  1.5086e-04  1.5086e-04  0:06:02  126

 Reversed flow on 568 faces (62.3% area) of pressure-outlet 29.
    25  2.2264e-01  3.3503e-04  1.0446e-04  1.1064e-04  2.3070e-08  1.4237e-04  1.4237e-04  0:06:03  125

 Reversed flow on 571 faces (63.4% area) of pressure-outlet 29.
    26  2.1493e-01  3.1408e-04  9.8578e-05  1.0498e-04  2.1745e-08  1.3724e-04  1.3724e-04  0:06:02  124

 Reversed flow on 574 faces (64.7% area) of pressure-outlet 29.
    27  2.0783e-01  2.9285e-04  9.2556e-05  9.9550e-05  2.0431e-08  1.3326e-04  1.3326e-04  0:05:37  123

 Reversed flow on 578 faces (66.3% area) of pressure-outlet 29.
    28  1.9891e-01  2.7040e-04  8.6099e-05  9.3723e-05  1.9972e-08  1.2982e-04  1.2982e-04  0:05:40  122

 Reversed flow on 578 faces (67.1% area) of pressure-outlet 29.
    29  1.9334e-01  2.6565e-04  8.1962e-05  9.2011e-05  1.8884e-08  1.2577e-04  1.2577e-04  0:05:18  121

 Reversed flow on 578 faces (67.1% area) of pressure-outlet 29.
    30  1.8548e-01  2.4581e-04  7.6503e-05  8.6285e-05  1.7921e-08  1.2404e-04  1.2404e-04  0:05:25  120

 Reversed flow on 580 faces (68.2% area) of pressure-outlet 29.
    31  1.7846e-01  2.3241e-04  7.2068e-05  8.2220e-05  1.7088e-08  1.2247e-04  1.2247e-04  0:05:05  119

 Reversed flow on 585 faces (69.9% area) of pressure-outlet 29.
    32  1.7105e-01  2.1781e-04  6.8214e-05  7.8080e-05  1.6399e-08  1.1996e-04  1.1996e-04  0:05:13  118

 Reversed flow on 584 faces (70.1% area) of pressure-outlet 29.
    33  1.6583e-01  2.1098e-04  6.5674e-05  7.5693e-05  1.5547e-08  1.1838e-04  1.1838e-04  0:04:55  117

 Reversed flow on 583 faces (70.0% area) of pressure-outlet 29.

  iter  continuity  x-velocity  y-velocity  z-velocity      energy         h2o          o2     time/iter
    34  1.5949e-01  1.9665e-04  6.2574e-05  7.1530e-05  1.5205e-08  1.1731e-04  1.1731e-04  0:05:04  116

 Reversed flow on 583 faces (70.0% area) of pressure-outlet 29.
    35  1.5336e-01  1.8823e-04  6.0358e-05  6.8400e-05  1.4826e-08  1.1964e-04  1.1964e-04  0:05:10  115

 Reversed flow on 584 faces (70.9% area) of pressure-outlet 29.
    36  1.5127e-01  1.9134e-04  5.9871e-05  6.8060e-05  1.4228e-08  1.2067e-04  1.2067e-04  0:04:51  114

 Reversed flow on 585 faces (71.5% area) of pressure-outlet 29.
    37  1.4623e-01  1.7917e-04  5.7701e-05  6.3919e-05  1.4058e-08  1.2282e-04  1.2282e-04  0:04:59  113

 Reversed flow on 586 faces (71.6% area) of pressure-outlet 29.
    38  1.3991e-01  1.6829e-04  5.6174e-05  6.0528e-05  1.4322e-08  1.2850e-04  1.2850e-04  0:04:42  112

 Reversed flow on 585 faces (71.6% area) of pressure-outlet 29.
    39  1.3650e-01  1.6439e-04  5.4919e-05  5.8771e-05  1.4589e-08  1.3304e-04  1.3304e-04  0:04:50  111

 Reversed flow on 585 faces (71.7% area) of pressure-outlet 29.
    40  1.3676e-01  1.6865e-04  5.4795e-05  5.8877e-05  1.4735e-08  1.3494e-04  1.3494e-04  0:04:34  110

 Reversed flow on 587 faces (72.1% area) of pressure-outlet 29.
    41  1.3409e-01  1.5875e-04  5.2972e-05  5.5728e-05  1.4270e-08  1.3596e-04  1.3596e-04  0:04:42  109

 Reversed flow on 585 faces (72.0% area) of pressure-outlet 29.
    42  1.3080e-01  1.5220e-04  5.1621e-05  5.3435e-05  1.4176e-08  1.3655e-04  1.3655e-04  0:04:27  108

 Reversed flow on 585 faces (72.3% area) of pressure-outlet 29.
    43  1.2787e-01  1.4577e-04  5.0487e-05  5.1417e-05  1.3513e-08  1.3701e-04  1.3701e-04  0:04:15  107

 Reversed flow on 583 faces (72.2% area) of pressure-outlet 29.
    44  1.2674e-01  1.4389e-04  4.9928e-05  5.0274e-05  1.3574e-08  1.3750e-04  1.3750e-04  0:04:25  106

 Reversed flow on 583 faces (72.3% area) of pressure-outlet 29.

  iter  continuity  x-velocity  y-velocity  z-velocity      energy         h2o          o2     time/iter
    45  1.2403e-01  1.3765e-04  4.9374e-05  4.8090e-05  1.3426e-08  1.3762e-04  1.3762e-04  0:04:12  105

 Reversed flow on 584 faces (72.7% area) of pressure-outlet 29.
    46  1.2152e-01  1.3387e-04  4.8954e-05  4.6763e-05  1.3027e-08  1.3440e-04  1.3440e-04  0:04:01  104

 Reversed flow on 585 faces (73.3% area) of pressure-outlet 29.
    47  1.1769e-01  1.2629e-04  4.8542e-05  4.4901e-05  1.2642e-08  1.2681e-04  1.2681e-04  0:04:13  103

 Reversed flow on 588 faces (74.4% area) of pressure-outlet 29.
    48  1.1356e-01  1.2429e-04  4.7888e-05  4.3768e-05  1.2249e-08  1.1763e-04  1.1763e-04  0:04:22  102

 Reversed flow on 591 faces (74.7% area) of pressure-outlet 29.
    49  1.1121e-01  1.1825e-04  4.6925e-05  4.2749e-05  1.1949e-08  1.0944e-04  1.0944e-04  0:04:28  101

 Reversed flow on 592 faces (75.0% area) of pressure-outlet 29.
    50  1.1009e-01  1.1754e-04  4.6484e-05  4.2101e-05  1.1709e-08  1.0196e-04  1.0196e-04  0:04:12  100

 Reversed flow on 590 faces (74.3% area) of pressure-outlet 29.
    51  1.0640e-01  1.0874e-04  4.4691e-05  3.9899e-05  1.1127e-08  9.5159e-05  9.5159e-05  0:03:59   99

 Reversed flow on 586 faces (73.3% area) of pressure-outlet 29.
    52  1.0351e-01  1.0326e-04  4.3290e-05  3.8426e-05  1.0345e-08  8.8247e-05  8.8247e-05  0:04:08   98
        Stabilizing pressure coupled to enhance linear solver robustness.

 Reversed flow on 588 faces (73.8% area) of pressure-outlet 29.
    53  1.0078e-01  9.7395e-05  4.1951e-05  3.6893e-05  9.6537e-09  8.2460e-05  8.2460e-05  0:06:50   97

 Reversed flow on 591 faces (74.1% area) of pressure-outlet 29.
    54  9.8720e-02  9.5950e-05  4.0515e-05  3.6365e-05  9.3420e-09  7.7720e-05  7.7720e-05  0:06:22   96

 Reversed flow on 589 faces (73.1% area) of pressure-outlet 29.
    55  9.6048e-02  8.9511e-05  3.8909e-05  3.4606e-05  8.9272e-09  7.3899e-05  7.3899e-05  0:05:41   95

 Reversed flow on 589 faces (72.8% area) of pressure-outlet 29.

  iter  continuity  x-velocity  y-velocity  z-velocity      energy         h2o          o2     time/iter
    56  9.3280e-02  8.5526e-05  3.7949e-05  3.3485e-05  8.7076e-09  7.0971e-05  7.0971e-05  0:05:26   94

 Reversed flow on 590 faces (72.9% area) of pressure-outlet 29.
    57  9.1117e-02  8.5701e-05  3.7044e-05  3.3019e-05  8.2993e-09  6.6409e-05  6.6409e-05  0:04:55   93

 Reversed flow on 586 faces (71.9% area) of pressure-outlet 29.
    58  8.8144e-02  8.0084e-05  3.5615e-05  3.1836e-05  7.8680e-09  6.1853e-05  6.1853e-05  0:04:49   92

 Reversed flow on 585 faces (71.5% area) of pressure-outlet 29.
    59  8.5330e-02  7.5355e-05  3.4430e-05  3.0585e-05  7.5520e-09  5.9014e-05  5.9014e-05  0:04:43   91

 Reversed flow on 587 faces (72.1% area) of pressure-outlet 29.
    60  8.3187e-02  7.4301e-05  3.3471e-05  2.9988e-05  7.3072e-09  5.5852e-05  5.5852e-05  0:04:20   90

 Reversed flow on 590 faces (73.6% area) of pressure-outlet 29.
    61  8.0713e-02  7.0131e-05  3.2140e-05  2.9275e-05  7.0865e-09  5.3180e-05  5.3180e-05  0:04:19   89

 Reversed flow on 587 faces (72.7% area) of pressure-outlet 29.
    62  7.8084e-02  6.6219e-05  3.1092e-05  2.8317e-05  6.8647e-09  4.9971e-05  4.9971e-05  0:04:00   88

 Reversed flow on 585 faces (71.9% area) of pressure-outlet 29.
    63  7.5659e-02  6.2603e-05  3.0070e-05  2.7453e-05  6.6228e-09  4.8480e-05  4.8480e-05  0:03:45   87

 Reversed flow on 583 faces (71.7% area) of pressure-outlet 29.
    64  7.3813e-02  6.0673e-05  2.9181e-05  2.6935e-05  6.3827e-09  4.5500e-05  4.5500e-05  0:03:49   86

 Reversed flow on 579 faces (71.1% area) of pressure-outlet 29.
    65  7.1769e-02  5.7740e-05  2.8305e-05  2.6161e-05  6.1834e-09  4.4356e-05  4.4356e-05  0:03:52   85

 Reversed flow on 583 faces (71.7% area) of pressure-outlet 29.
    66  6.9103e-02  5.7643e-05  2.7402e-05  2.5583e-05  6.0374e-09  4.3169e-05  4.3169e-05  0:03:37   84

 Reversed flow on 582 faces (71.7% area) of pressure-outlet 29.

  iter  continuity  x-velocity  y-velocity  z-velocity      energy         h2o          o2     time/iter
    67  6.7002e-02  5.4875e-05  2.6444e-05  2.5143e-05  5.7902e-09  4.1732e-05  4.1732e-05  0:03:25   83
        Stabilizing pressure coupled to enhance linear solver robustness.

 Reversed flow on 577 faces (71.2% area) of pressure-outlet 29.
    68  6.4947e-02  5.1677e-05  2.5721e-05  2.4174e-05  5.6608e-09  4.0410e-05  4.0410e-05  0:05:10   82

 Reversed flow on 578 faces (70.6% area) of pressure-outlet 29.
    69  6.2948e-02  5.1527e-05  2.5003e-05  2.3871e-05  5.4429e-09  3.9293e-05  3.9293e-05  0:04:37   81
        Stabilizing pressure coupled to enhance linear solver robustness.

 Reversed flow on 575 faces (72.4% area) of pressure-outlet 29.
    70  6.1460e-02  4.9193e-05  2.4358e-05  2.3162e-05  5.3284e-09  3.7919e-05  3.7919e-05  0:05:31   80

 Reversed flow on 573 faces (72.0% area) of pressure-outlet 29.
    71  5.9363e-02  4.6896e-05  2.3236e-05  2.2312e-05  5.2259e-09  3.7096e-05  3.7096e-05  0:04:53   79

 Reversed flow on 565 faces (71.9% area) of pressure-outlet 29.
    72  5.7891e-02  4.6691e-05  2.3267e-05  2.2185e-05  5.1608e-09  3.6366e-05  3.6366e-05  0:04:38   78

 Reversed flow on 556 faces (71.7% area) of pressure-outlet 29.
    73  5.6831e-02  4.5282e-05  2.2957e-05  2.1734e-05  5.0799e-09  3.5380e-05  3.5380e-05  0:04:11   77
        Stabilizing pressure coupled to enhance linear solver robustness.

 Reversed flow on 550 faces (71.9% area) of pressure-outlet 29.
    74  5.5903e-02  4.4088e-05  2.2722e-05  2.1378e-05  5.0135e-09  3.4731e-05  3.4731e-05  0:05:04   76

 Reversed flow on 549 faces (73.5% area) of pressure-outlet 29.
    75  5.4711e-02  4.2853e-05  2.1782e-05  2.0829e-05  4.9783e-09  3.4247e-05  3.4247e-05  0:04:45   75
        Stabilizing pressure coupled to enhance linear solver robustness.

 Reversed flow on 545 faces (73.4% area) of pressure-outlet 29.
    76  5.3827e-02  4.2240e-05  2.1906e-05  2.0726e-05  4.9196e-09  3.3887e-05  3.3887e-05  0:05:29   74

 Reversed flow on 547 faces (74.3% area) of pressure-outlet 29.
    77  5.3300e-02  4.3063e-05  2.1615e-05  2.0864e-05  4.9242e-09  3.3360e-05  3.3360e-05  0:05:03   73
        Stabilizing pressure coupled to enhance linear solver robustness.

 Reversed flow on 543 faces (74.3% area) of pressure-outlet 29.

  iter  continuity  x-velocity  y-velocity  z-velocity      energy         h2o          o2     time/iter
    78  5.2985e-02  4.2253e-05  2.1501e-05  2.0735e-05  4.8613e-09  3.2405e-05  3.2405e-05  0:05:40   72

 Reversed flow on 544 faces (74.3% area) of pressure-outlet 29.
    79  5.2704e-02  4.3305e-05  2.1437e-05  2.1116e-05  4.7970e-09  3.2065e-05  3.2065e-05  0:04:57   71

 Reversed flow on 545 faces (74.3% area) of pressure-outlet 29.
    80  5.2521e-02  4.1858e-05  2.1198e-05  2.0784e-05  4.7388e-09  3.1681e-05  3.1681e-05  0:04:36   70
        Stabilizing pressure coupled to enhance linear solver robustness.

 Reversed flow on 541 faces (74.1% area) of pressure-outlet 29.
    81  5.2503e-02  4.1020e-05  2.1200e-05  2.0680e-05  4.6675e-09  3.1260e-05  3.1259e-05  0:05:14   69

 Reversed flow on 542 faces (74.4% area) of pressure-outlet 29.
    82  5.1706e-02  3.9359e-05  2.0387e-05  2.0236e-05  4.6116e-09  3.1007e-05  3.1007e-05  0:04:35   68

 Reversed flow on 542 faces (74.4% area) of pressure-outlet 29.
    83  5.1051e-02  3.8796e-05  2.0657e-05  2.0311e-05  4.5417e-09  3.0889e-05  3.0889e-05  0:04:17   67
        Stabilizing pressure coupled to enhance linear solver robustness.

 Reversed flow on 542 faces (75.1% area) of pressure-outlet 29.
    84  5.1157e-02  3.8407e-05  2.0624e-05  2.0273e-05  4.4883e-09  3.0420e-05  3.0420e-05  0:04:55   66

 Reversed flow on 542 faces (75.1% area) of pressure-outlet 29.
    85  5.0352e-02  3.7299e-05  1.9789e-05  1.9744e-05  4.4298e-09  3.0014e-05  3.0014e-05  0:04:18   65

 Reversed flow on 541 faces (75.1% area) of pressure-outlet 29.
    86  4.9534e-02  3.6962e-05  1.9902e-05  1.9712e-05  4.3698e-09  2.9946e-05  2.9946e-05  0:04:02   64

 Reversed flow on 543 faces (75.9% area) of pressure-outlet 29.
    87  4.9322e-02  3.6431e-05  1.9703e-05  1.9467e-05  4.3278e-09  2.9531e-05  2.9531e-05  0:03:36   63

 Reversed flow on 545 faces (76.7% area) of pressure-outlet 29.
    88  4.9063e-02  3.6022e-05  1.9532e-05  1.9259e-05  4.2699e-09  2.9162e-05  2.9162e-05  0:03:15   62

 Reversed flow on 544 faces (76.7% area) of pressure-outlet 29.

  iter  continuity  x-velocity  y-velocity  z-velocity      energy         h2o          o2     time/iter
    89  4.8680e-02  3.5648e-05  1.9354e-05  1.9036e-05  4.2116e-09  2.9134e-05  2.9134e-05  0:03:10   61

 Reversed flow on 544 faces (76.8% area) of pressure-outlet 29.
    90  4.8123e-02  3.5090e-05  1.9167e-05  1.8800e-05  4.1560e-09  2.8782e-05  2.8782e-05  0:02:53   60
        Stabilizing pressure coupled to enhance linear solver robustness.

 Reversed flow on 547 faces (78.2% area) of pressure-outlet 29.
    91  4.7333e-02  3.4874e-05  1.9054e-05  1.8664e-05  4.0986e-09  2.8635e-05  2.8635e-05  0:03:39   59

 Reversed flow on 547 faces (78.2% area) of pressure-outlet 29.
    92  4.5735e-02  3.3980e-05  1.8249e-05  1.8158e-05  4.0369e-09  2.7991e-05  2.7991e-05  0:03:27   58
        Stabilizing pressure coupled to enhance linear solver robustness.

 Reversed flow on 551 faces (78.4% area) of pressure-outlet 29.
    93  4.4603e-02  3.3826e-05  1.8408e-05  1.8296e-05  3.9656e-09  2.7979e-05  2.7979e-05  0:03:51   57

 Reversed flow on 548 faces (78.0% area) of pressure-outlet 29.
    94  4.3263e-02  3.2599e-05  1.7698e-05  1.7882e-05  3.9485e-09  2.7494e-05  2.7494e-05  0:03:35   56
        Stabilizing pressure coupled to enhance linear solver robustness.

 Reversed flow on 548 faces (78.0% area) of pressure-outlet 29.
    95  4.2392e-02  3.2689e-05  1.7972e-05  1.8087e-05  3.8752e-09  2.7427e-05  2.7427e-05  0:03:55   55

 Reversed flow on 545 faces (77.8% area) of pressure-outlet 29.
    96  4.1537e-02  3.1640e-05  1.7306e-05  1.7732e-05  3.8575e-09  2.6900e-05  2.6900e-05  0:03:26   54
        Stabilizing pressure coupled to enhance linear solver robustness.

 Reversed flow on 546 faces (77.8% area) of pressure-outlet 29.
    97  4.1106e-02  3.1873e-05  1.7536e-05  1.7968e-05  3.8041e-09  2.6687e-05  2.6687e-05  0:03:46   53

 Reversed flow on 545 faces (77.8% area) of pressure-outlet 29.
    98  4.0415e-02  3.0789e-05  1.6874e-05  1.7528e-05  3.7938e-09  2.6296e-05  2.6296e-05  0:03:28   52

 Reversed flow on 543 faces (77.8% area) of pressure-outlet 29.
    99  3.9988e-02  3.0822e-05  1.7003e-05  1.7683e-05  3.7589e-09  2.6266e-05  2.6266e-05  0:03:04   51
        Stabilizing pressure coupled to enhance linear solver robustness.

 Reversed flow on 544 faces (77.8% area) of pressure-outlet 29.

  iter  continuity  x-velocity  y-velocity  z-velocity      energy         h2o          o2     time/iter
   100  3.9870e-02  3.0382e-05  1.6954e-05  1.7549e-05  3.7555e-09  2.5791e-05  2.5791e-05  0:03:34   50

 Reversed flow on 544 faces (77.8% area) of pressure-outlet 29.
   101  3.9240e-02  2.9428e-05  1.6159e-05  1.7018e-05  3.7454e-09  2.5757e-05  2.5757e-05  0:03:17   49

 Reversed flow on 546 faces (77.9% area) of pressure-outlet 29.
   102  3.8667e-02  2.9060e-05  1.6207e-05  1.6985e-05  3.7275e-09  2.5539e-05  2.5539e-05  0:02:54   48
        Stabilizing pressure coupled to enhance linear solver robustness.

 Reversed flow on 544 faces (77.8% area) of pressure-outlet 29.
   103  3.8419e-02  2.8740e-05  1.6102e-05  1.6848e-05  3.7303e-09  2.5496e-05  2.5496e-05  0:03:31   47

 Reversed flow on 544 faces (77.6% area) of pressure-outlet 29.
   104  3.7522e-02  2.7902e-05  1.5333e-05  1.6331e-05  3.7411e-09  2.5288e-05  2.5288e-05  0:03:04   46

 Reversed flow on 546 faces (77.6% area) of pressure-outlet 29.
   105  3.6728e-02  2.7532e-05  1.5361e-05  1.6323e-05  3.7127e-09  2.5312e-05  2.5312e-05  0:02:42   45

 Reversed flow on 546 faces (77.6% area) of pressure-outlet 29.
   106  3.6163e-02  2.7114e-05  1.5254e-05  1.6167e-05  3.7086e-09  2.5205e-05  2.5205e-05  0:02:33   44

 Reversed flow on 547 faces (77.7% area) of pressure-outlet 29.
   107  3.5781e-02  2.6907e-05  1.5155e-05  1.5999e-05  3.6949e-09  2.5104e-05  2.5104e-05  0:02:25   43

 Reversed flow on 546 faces (77.6% area) of pressure-outlet 29.
   108  3.5311e-02  2.8185e-05  1.4861e-05  1.5787e-05  3.6870e-09  2.4919e-05  2.4919e-05  0:02:10   42

 Reversed flow on 545 faces (77.5% area) of pressure-outlet 29.
   109  3.4112e-02  2.7070e-05  1.4558e-05  1.5546e-05  3.6616e-09  2.4766e-05  2.4766e-05  0:02:06   41

 Reversed flow on 547 faces (77.7% area) of pressure-outlet 29.
   110  3.3031e-02  2.6146e-05  1.4318e-05  1.5167e-05  3.6576e-09  2.4655e-05  2.4655e-05  0:01:55   40
        Stabilizing pressure coupled to enhance linear solver robustness.

 Reversed flow on 546 faces (77.6% area) of pressure-outlet 29.

  iter  continuity  x-velocity  y-velocity  z-velocity      energy         h2o          o2     time/iter
   111  3.2609e-02  2.5598e-05  1.4190e-05  1.4884e-05  3.6472e-09  2.4473e-05  2.4473e-05  0:02:24   39

 Reversed flow on 546 faces (77.6% area) of pressure-outlet 29.
   112  3.1718e-02  2.4793e-05  1.3527e-05  1.4334e-05  3.6278e-09  2.4495e-05  2.4495e-05  0:02:15   38

 Reversed flow on 547 faces (77.8% area) of pressure-outlet 29.
   113  3.1111e-02  2.4643e-05  1.3504e-05  1.4217e-05  3.6024e-09  2.4279e-05  2.4279e-05  0:02:00   37

 Reversed flow on 547 faces (77.8% area) of pressure-outlet 29.
   114  3.0849e-02  2.4459e-05  1.3362e-05  1.3955e-05  3.5718e-09  2.4040e-05  2.4040e-05  0:01:48   36
        Stabilizing pressure coupled to enhance linear solver robustness.

 Reversed flow on 546 faces (77.6% area) of pressure-outlet 29.
   115  3.0775e-02  2.4501e-05  1.3210e-05  1.3708e-05  3.5319e-09  2.3671e-05  2.3671e-05  0:02:20   35

 Reversed flow on 548 faces (77.8% area) of pressure-outlet 29.
   116  3.0233e-02  2.4078e-05  1.2596e-05  1.3168e-05  3.5077e-09  2.3666e-05  2.3666e-05  0:02:02   34
        Stabilizing pressure coupled to enhance linear solver robustness.

 Reversed flow on 547 faces (77.7% area) of pressure-outlet 29.
   117  2.9863e-02  2.3817e-05  1.2558e-05  1.2982e-05  3.4809e-09  2.3493e-05  2.3493e-05  0:02:15   33

 Reversed flow on 548 faces (77.6% area) of pressure-outlet 29.
   118  2.9316e-02  2.3258e-05  1.2026e-05  1.2506e-05  3.4635e-09  2.3481e-05  2.3481e-05  0:02:04   32
        Stabilizing pressure coupled to enhance linear solver robustness.

 Reversed flow on 552 faces (77.8% area) of pressure-outlet 29.
   119  2.9071e-02  2.3383e-05  1.2146e-05  1.2475e-05  3.4561e-09  2.3336e-05  2.3336e-05  0:02:13   31

 Reversed flow on 554 faces (77.7% area) of pressure-outlet 29.
   120  2.8752e-02  2.2665e-05  1.1769e-05  1.2112e-05  3.4504e-09  2.3402e-05  2.3402e-05  0:01:55   30
        Stabilizing pressure coupled to enhance linear solver robustness.

 Reversed flow on 553 faces (77.7% area) of pressure-outlet 29.
   121  2.8804e-02  2.2778e-05  1.2008e-05  1.2141e-05  3.4476e-09  2.3251e-05  2.3251e-05  0:02:09   29

 Reversed flow on 554 faces (78.1% area) of pressure-outlet 29.

  iter  continuity  x-velocity  y-velocity  z-velocity      energy         h2o          o2     time/iter
   122  2.8870e-02  2.2190e-05  1.1717e-05  1.1928e-05  3.4386e-09  2.3310e-05  2.3310e-05  0:01:51   28

 Reversed flow on 555 faces (77.9% area) of pressure-outlet 29.
   123  2.9160e-02  2.2344e-05  1.2035e-05  1.2092e-05  3.4471e-09  2.3227e-05  2.3227e-05  0:01:37   27
        Stabilizing pressure coupled to enhance linear solver robustness.

 Reversed flow on 555 faces (77.9% area) of pressure-outlet 29.
   124  2.9880e-02  2.2502e-05  1.2287e-05  1.2218e-05  3.4345e-09  2.3086e-05  2.3086e-05  0:01:51   26

 Reversed flow on 557 faces (78.0% area) of pressure-outlet 29.
   125  3.0266e-02  2.1966e-05  1.2016e-05  1.2066e-05  3.4377e-09  2.2944e-05  2.2944e-05  0:01:40   25

 Reversed flow on 557 faces (78.0% area) of pressure-outlet 29.
   126  3.0489e-02  2.1840e-05  1.2279e-05  1.2248e-05  3.4331e-09  2.2813e-05  2.2813e-05  0:01:27   24

 Reversed flow on 557 faces (77.9% area) of pressure-outlet 29.
   127  3.0939e-02  2.1788e-05  1.2444e-05  1.2347e-05  3.4258e-09  2.2567e-05  2.2567e-05  0:01:20   23

 Reversed flow on 557 faces (77.9% area) of pressure-outlet 29.
   128  3.1461e-02  2.1778e-05  1.2630e-05  1.2486e-05  3.4106e-09  2.2326e-05  2.2326e-05  0:01:10   22

 Reversed flow on 558 faces (78.0% area) of pressure-outlet 29.
   129  3.1847e-02  2.1613e-05  1.2740e-05  1.2573e-05  3.4204e-09  2.2103e-05  2.2103e-05  0:01:06   21

 Reversed flow on 559 faces (78.0% area) of pressure-outlet 29.
   130  3.1951e-02  2.2930e-05  1.2571e-05  1.2655e-05  3.4198e-09  2.1910e-05  2.1910e-05  0:01:02   20

 Reversed flow on 555 faces (77.9% area) of pressure-outlet 29.
   131  3.1134e-02  2.1895e-05  1.2508e-05  1.2806e-05  3.4227e-09  2.1735e-05  2.1735e-05  0:00:55   19

 Reversed flow on 558 faces (77.9% area) of pressure-outlet 29.
   132  3.0608e-02  2.1385e-05  1.2485e-05  1.2803e-05  3.4153e-09  2.1648e-05  2.1648e-05  0:00:49   18

 Reversed flow on 558 faces (77.9% area) of pressure-outlet 29.

  iter  continuity  x-velocity  y-velocity  z-velocity      energy         h2o          o2     time/iter
   133  3.0628e-02  2.1216e-05  1.2611e-05  1.2871e-05  3.4204e-09  2.1622e-05  2.1622e-05  0:00:47   17
        Stabilizing pressure coupled to enhance linear solver robustness.

 Reversed flow on 558 faces (78.0% area) of pressure-outlet 29.
   134  3.0876e-02  2.1249e-05  1.2825e-05  1.2970e-05  3.4170e-09  2.1552e-05  2.1552e-05  0:00:58   16

 Reversed flow on 557 faces (77.9% area) of pressure-outlet 29.
   135  3.0701e-02  2.0833e-05  1.2495e-05  1.2822e-05  3.4144e-09  2.1630e-05  2.1630e-05  0:00:52   15

 Reversed flow on 559 faces (78.0% area) of pressure-outlet 29.
   136  3.0575e-02  2.0791e-05  1.2766e-05  1.3043e-05  3.4078e-09  2.1709e-05  2.1708e-05  0:00:45   14

 Reversed flow on 561 faces (78.1% area) of pressure-outlet 29.
   137  3.0655e-02  2.0936e-05  1.2941e-05  1.3192e-05  3.3889e-09  2.1707e-05  2.1707e-05  0:00:38   13
        Stabilizing pressure coupled to enhance linear solver robustness.

 Reversed flow on 559 faces (78.0% area) of pressure-outlet 29.
   138  3.0731e-02  2.1160e-05  1.3130e-05  1.3376e-05  3.3790e-09  2.1599e-05  2.1599e-05  0:00:45   12

 Reversed flow on 564 faces (78.2% area) of pressure-outlet 29.
   139  3.0497e-02  2.0856e-05  1.2753e-05  1.3187e-05  3.3691e-09  2.1633e-05  2.1633e-05  0:00:38   11
        Stabilizing pressure coupled to enhance linear solver robustness.

 Reversed flow on 562 faces (78.1% area) of pressure-outlet 29.
   140  3.0499e-02  2.1201e-05  1.3120e-05  1.3396e-05  3.3617e-09  2.1593e-05  2.1593e-05  0:00:39   10

 Reversed flow on 563 faces (78.1% area) of pressure-outlet 29.
   141  3.0083e-02  2.0738e-05  1.2849e-05  1.3246e-05  3.3382e-09  2.1466e-05  2.1466e-05  0:00:34    9
        Stabilizing pressure coupled to enhance linear solver robustness.

 Reversed flow on 562 faces (78.2% area) of pressure-outlet 29.
   142  3.0084e-02  2.1180e-05  1.3270e-05  1.3478e-05  3.3394e-09  2.1392e-05  2.1392e-05  0:00:34    8

 Reversed flow on 558 faces (78.0% area) of pressure-outlet 29.
   143  2.9852e-02  2.0813e-05  1.2978e-05  1.3269e-05  3.3221e-09  2.1282e-05  2.1282e-05  0:00:26    7
        Stabilizing pressure coupled to enhance linear solver robustness.

 Reversed flow on 559 faces (77.9% area) of pressure-outlet 29.

  iter  continuity  x-velocity  y-velocity  z-velocity      energy         h2o          o2     time/iter
   144  2.9892e-02  2.1320e-05  1.3337e-05  1.3509e-05  3.3197e-09  2.1232e-05  2.1232e-05  0:00:26    6

 Reversed flow on 564 faces (78.1% area) of pressure-outlet 29.
   145  2.9801e-02  2.1057e-05  1.3068e-05  1.3326e-05  3.3199e-09  2.1247e-05  2.1247e-05  0:00:20    5

 Reversed flow on 565 faces (78.2% area) of pressure-outlet 29.
   146  2.9916e-02  2.1596e-05  1.3417e-05  1.3644e-05  3.3174e-09  2.1329e-05  2.1329e-05  0:00:15    4

 Reversed flow on 566 faces (78.1% area) of pressure-outlet 29.
   147  3.0508e-02  2.1990e-05  1.3700e-05  1.3843e-05  3.3221e-09  2.1312e-05  2.1312e-05  0:00:10    3
        Stabilizing pressure coupled to enhance linear solver robustness.

 Reversed flow on 565 faces (78.1% area) of pressure-outlet 29.
   148  3.1269e-02  2.2347e-05  1.3958e-05  1.4030e-05  3.3295e-09  2.1301e-05  2.1301e-05  0:00:08    2

 Reversed flow on 567 faces (78.2% area) of pressure-outlet 29.
   149  3.1396e-02  2.2128e-05  1.3560e-05  1.3839e-05  3.3318e-09  2.1325e-05  2.1325e-05  0:00:04    1

 Reversed flow on 567 faces (78.2% area) of pressure-outlet 29.
   150  3.1460e-02  2.2110e-05  1.3853e-05  1.4074e-05  3.3220e-09  2.1543e-05  2.1543e-05  0:00:00    0

Calculation complete.
(cx-gui-do cx-activate-item "Information*OK")
(cx-gui-do cx-set-list-tree-selections "NavigationPane*Frame2*Table1*List_Tree2" (list "Results|Graphics|Contours"))
(cx-gui-do cx-set-list-tree-selections "NavigationPane*Frame2*Table1*List_Tree2" (list "Results|Graphics|Contours"))
(cx-gui-do cx-activate-item "NavigationPane*Frame2*Table1*List_Tree2")
(cx-gui-do cx-set-list-tree-selections "NavigationPane*Frame2*Table1*List_Tree2" (list "Results|Graphics|Contours"))
(cx-gui-do cx-set-list-selections "Contours*Table1*Frame3*Frame2*List2(Surfaces)" '( 2))
(cx-gui-do cx-activate-item "Contours*Table1*Frame3*Frame2*List2(Surfaces)")
(cx-gui-do cx-set-list-selections "Contours*Table1*Frame3*Frame2*List2(Surfaces)" '( 1 2))
(cx-gui-do cx-activate-item "Contours*Table1*Frame3*Frame2*List2(Surfaces)")
(cx-gui-do cx-set-list-selections "Contours*Table1*Frame3*Frame2*List2(Surfaces)" '( 0 1 2))
(cx-gui-do cx-activate-item "Contours*Table1*Frame3*Frame2*List2(Surfaces)")
(cx-gui-do cx-set-list-selections "Contours*Table1*Frame3*Frame2*List2(Surfaces)" '( 0 1 2 5))
(cx-gui-do cx-activate-item "Contours*Table1*Frame3*Frame2*List2(Surfaces)")
(cx-gui-do cx-activate-item "Contours*PanelButtons*PushButton1(OK)")
(cx-use-window-id 51)
(cx-use-window-id 51)
(cx-set-camera-relative '(-0.0299235 0.0461558 -0.086379) '(0 0 0) '(-0.00205991 -0.572743 -0.302388) 0 0)
(cx-gui-do cx-activate-item "Contours*PanelButtons*PushButton2(Cancel)")
(cx-use-window-id 51)
(cx-set-camera-relative '(0.000808701 -0.000150621 -0.0200089) '(0 0 0) '(0.0223129 -0.338271 0.00346345) 0 0)
(cx-use-window-id 51)
(cx-set-camera-relative '(-0.00226514 -0.000699148 0.0167129) '(0 0 0) '(-0.0336161 0.41131 0.0119699) 0 0)
(cx-use-window-id 51)
(cx-set-camera-relative '(0.00376955 -0.00470034 0.0122977) '(0 0 0) '(-0.0177299 0.271088 0.109789) 0 0)
(cx-use-window-id 51)
(cx-set-camera-relative '(-0.00130213 0.00356461 -0.0129542) '(0 0 0) '(0.0279812 -0.48762 -0.136936) 0 0)
(cx-use-window-id 51)
(cx-set-camera-relative '(0.00590023 -0.00282166 0.0177967) '(0 0 0) '(0.00645376 0.303025 0.0497124) 0 0)
(cx-use-window-id 51)
(cx-set-camera-relative '(-0.0167547 -0.0620368 0.0776467) '(0 0 0) '(-0.0352007 0.523452 0.41229) 0 0)
(cx-use-window-id 51)
(cx-set-camera-relative '(-0.156697 0.0801213 -0.214865) '(0 0 0) '(0.592975 -0.334077 -0.197763) 0 0)
(cx-use-window-id 51)
(cx-set-camera-relative '(-0.00940934 -0.0238838 0.0348809) '(0 0 0) '(-0.0880306 0.289861 0.248524) 0 0)
(cx-use-window-id 51)
(cx-set-camera-relative '(-0.00472057 0.000260483 -0.0459948) '(0 0 0) '(0.278946 -0.151421 0.0790731) 0 0)
(cx-use-window-id 51)
(cx-set-camera-relative '(0.0102499 0.0160266 0.0399867) '(0 0 0) '(0.00342363 -0.00727075 -0.00588143) 0 0)
(cx-use-window-id 51)
(cx-set-camera-relative '(0.000994287 0.00106804 -0.00188761) '(0 0 0) '(0.0256779 -0.029795 -0.00297618) 0 0)
(cx-use-window-id 51)
(cx-set-camera-relative '(-0.0243464 -0.0345879 0.0112479) '(0 0 0) '(-0.368855 0.2778 0.0585453) 0 0)
(cx-use-window-id 51)
(cx-set-camera-relative '(-0.00140718 -0.00169899 -0.00757887) '(0 0 0) '(0.0230571 0.00480056 0.0349771) 0 0)
(cx-use-window-id 51)
(cx-set-camera-relative '(-0.00111224 -0.00524354 0.00245445) '(0 0 0) '(-0.27466 0.0642266 0.0132295) 0 0)
(cx-use-window-id 51)
(cx-set-camera-relative '(0.000147671 0.000524513 -4.96367e-05) '(0 0 0) '(0.341362 -0.0987979 -0.0295601) 0 0)
(cx-use-window-id 51)
(cx-set-camera-relative '(0.0051621 0.0107415 0.000352692) '(0 0 0) '(0.322021 -0.271894 -0.0360148) 0 0)
(cx-use-window-id 51)
(cx-set-camera-relative '(-0.00822492 -0.00569511 0.00646823) '(0 0 0) '(-0.298734 0.277857 0.0835133) 0 0)
(cx-use-window-id 51)
(cx-set-camera-relative '(0.0490418 0.0270913 -0.00749283) '(0 0 0) '(0.36632 -0.473204 -0.185098) 0 0)
(cx-use-window-id 51)
(cx-set-camera-relative '(-0.0178521 -0.0123754 0.00346737) '(0 0 0) '(-0.232997 0.364032 0.117101) 0 0)
(cx-use-window-id 51)
(cx-set-camera-relative '(-0.00295143 -0.00542947 0.00230058) '(0 0 0) '(-0.172842 0.145451 0.129045) 0 0)
(cx-use-window-id 51)
(cx-set-camera-relative '(-0.0018516 -0.000672748 -0.00387104) '(0 0 0) '(-0.0102514 0.00886095 0.0186246) 0 0)
(cx-gui-do cx-set-list-tree-selections "NavigationPane*Frame2*Table1*List_Tree2" (list "Results|Graphics|Pathlines"))
(cx-gui-do cx-set-list-tree-selections "NavigationPane*Frame2*Table1*List_Tree2" (list "Results|Graphics|Pathlines"))
(cx-gui-do cx-set-list-tree-selections "NavigationPane*Frame2*Table1*List_Tree2" (list "Results|Graphics|Pathlines"))
(cx-gui-do cx-activate-item "NavigationPane*Frame2*Table1*List_Tree2")
(cx-gui-do cx-set-list-tree-selections "NavigationPane*Frame2*Table1*List_Tree2" (list "Results|Graphics|Pathlines"))
(cx-gui-do cx-set-list-selections "Pathlines*Frame4*List3(Release from Surfaces)" '( 3))
(cx-gui-do cx-activate-item "Pathlines*Frame4*List3(Release from Surfaces)")
(cx-gui-do cx-activate-item "Pathlines*PanelButtons*PushButton1(OK)")

number tracked = 893, incomplete = 893
(cx-use-window-id 51)
(cx-gui-do cx-activate-item "Pathlines*PanelButtons*PushButton2(Cancel)")
(cx-use-window-id 51)
(cx-set-camera-relative '(0.0147626 0.0200497 -0.0103802) '(0 0 0) '(0.393422 -0.325123 -0.0620586) 0 0)
(cx-use-window-id 51)
(cx-set-camera-relative '(0.0120692 0.00772825 -0.00231405) '(0 0 0) '(0.0709383 -0.111947 -0.00440413) 0 0)
(cx-use-window-id 51)
(cx-set-camera-relative '(0.0082504 0.00215314 -0.00181478) '(0 0 0) '(0.125462 -0.462317 0.0192893) 0 0)
(cx-use-window-id 51)
(cx-set-camera-relative '(-0.00408147 -0.00159474 0.00104899) '(0 0 0) '(-0.251573 0.651704 0.0113177) 0 0)
(cx-use-window-id 51)
(cx-set-camera-relative '(0.00806691 -0.0107261 0.0200208) '(0 0 0) '(-0.0185834 0.062292 0.24473) 0 0)
(cx-use-window-id 51)
(cx-set-camera-relative '(0.00522674 -0.00534776 0.00254612) '(0 0 0) '(-0.0485304 0.0441576 -0.0037331) 0 0)
(cx-use-window-id 51)
(cx-set-camera-relative '(-0.00677764 0.0147393 -0.00545951) '(0 0 0) '(0.024368 -0.0332386 -0.129287) 0 0)
(cx-use-window-id 51)
(cx-set-camera-relative '(0.0230771 -0.0378303 0.00985916) '(0 0 0) '(0.00574505 0.00593841 0.161518) 0 0)
(cx-use-window-id 51)
(cx-set-camera-relative '(-0.00549627 0.00507775 5.70714e-05) '(0 0 0) '(0 0 0) 0 0)
(cx-use-window-id 51)
(cx-set-camera-relative '(-0.0026038 0.0245936 -0.00357115) '(0 0 0) '(0.0128706 -0.0257599 -0.172799) 0 0)
(cx-use-window-id 51)
(cx-set-camera-relative '(-0.0207218 0.0448779 -0.0248366) '(0 0 0) '(0.0244159 -0.0635022 -0.125413) 0 0)
(cx-use-window-id 51)
(cx-set-camera-relative '(-0.0102427 0.0422021 -0.0491735) '(0 0 0) '(0.0566097 -0.145446 -0.124327) 0 0)
(cx-use-window-id 51)
(cx-set-camera-relative '(0.0203039 0.0274625 -0.0983568) '(0 0 0) '(0.166508 -0.379763 0.0696942) 0 0)
(cx-use-window-id 51)
(cx-set-camera-relative '(0.00328266 0.000725217 0.00643223) '(0 0 0) '(0.00176609 -0.0142364 0.000180095) 0 0)
(cx-use-window-id 51)
(cx-set-camera-relative '(-0.00482883 -0.00213511 0.00560476) '(0 0 0) '(-0.0864618 0.343807 0.0606447) 0 0)
(cx-use-window-id 51)
(cx-set-camera-relative '(0.0349131 -0.0052763 -0.0117482) '(0 0 0) '(-0.200651 -1.10966 -0.107711) 0 0)
(cx-use-window-id 51)
(cx-set-camera-relative '(0.0135661 -0.0205379 -0.0070558) '(0 0 0) '(-0.310246 -0.222455 0.0493504) 0 0)
(cx-use-window-id 51)
(cx-set-camera-relative '(-0.00528483 0.00847195 0.00583428) '(0 0 0) '(0.31623 0.212328 -0.0192838) 0 0)
(cx-use-window-id 51)
(cx-set-camera-relative '(0.0126105 -0.0199113 -0.00320366) '(0 0 0) '(-0.333789 -0.211936 0.000427306) 0 0)
(cx-use-window-id 51)
(cx-set-camera-relative '(-0.000791505 0.00125304 0.00484489) '(0 0 0) '(0.0896683 0.0355947 0.00729302) 0 0)
(cx-use-window-id 51)
(cx-set-camera-relative '(-0.0243132 0.0265642 0.00508184) '(0 0 0) '(0.44335 0.381662 0.117158) 0 0)
(cx-use-window-id 51)
(cx-set-camera-relative '(-0.0306935 0.00912172 -0.00237156) '(0 0 0) '(0.134814 0.481598 0.102285) 0 0)
(cx-use-window-id 51)
(cx-set-camera-relative '(-0.0146378 -0.00271436 -0.00358693) '(0 0 0) '(-0.0893417 0.404673 0.0400006) 0 0)
(cx-use-window-id 51)
(cx-set-camera-relative '(0.00779884 -0.0124636 -0.0311742) '(0 0 0) '(0.0707387 -0.221057 -0.0253675) 0 0)
(cx-use-window-id 51)
(cx-set-camera-relative '(-0.00410594 0.000786047 -0.0135976) '(0 0 0) '(-0.0115044 0.0344964 -0.0321189) 0 0)
(cx-use-window-id 51)
(cx-set-camera-relative '(0.0185323 -0.0268673 -0.0042625) '(0 0 0) '(0.0138915 -0.0668638 0.259887) 0 0)
(cx-use-window-id 51)
(cx-set-camera-relative '(0.014978 -0.021111 0.0144192) '(0 0 0) '(-0.0865834 0.10144 0.236691) 0 0)
(cx-use-window-id 51)
(cx-set-camera-relative '(-0.00752629 0.0146084 -0.00830663) '(0 0 0) '(0.0730795 -0.0687933 -0.19024) 0 0)
(cx-use-window-id 51)
(cx-set-camera-relative '(0.000770412 -0.00245796 0.000433741) '(0 0 0) '(-0.00300288 0.00169589 0.0139138) 0 0)
(cx-use-window-id 51)
(cx-set-camera-relative '(0.00604929 -0.011927 0.00555683) '(0 0 0) '(-0.0255033 0.0241725 0.0821913) 0 0)
(cx-use-window-id 51)
(cx-set-camera-relative '(-0.0135472 0.018276 -0.000615381) '(0 0 0) '(0.0523321 -0.10427 -0.173257) 0 0)
(cx-use-window-id 51)
(cx-set-camera-relative '(-0.0047884 0.0226157 0.00132181) '(0 0 0) '(0.00152791 0.00300182 -0.0212504) 0 0)
(cx-use-window-id 51)
(cx-set-camera-relative '(-0.0626102 0.080148 0.0595209) '(0 0 0) '(-0.0551893 0.183932 -0.258014) 0 0)
(cx-use-window-id 51)
(cx-set-camera-relative '(-0.0286487 -0.038641 0.00839509) '(0 0 0) '(-0.626379 0.370368 -0.486429) 0 0)
(cx-use-window-id 51)
(cx-set-camera-relative '(0.0299764 0.00329622 -0.0267245) '(0 0 0) '(-0.0713851 0.29211 0.633207) 0 0)
(cx-use-window-id 51)
(cx-set-camera-relative '(0.0420261 -0.00757705 0.00362755) '(0 0 0) '(-0.0357042 0.00856698 0.0332098) 0 0)
(cx-use-window-id 51)
(cx-set-camera-relative '(0.0227688 0.000696323 0.0246532) '(0 0 0) '(-0.0787788 0.010507 0.0686968) 0 0)
(cx-use-window-id 51)
(cx-set-camera-relative '(-0.00940875 0.0354336 0.00351319) '(0 0 0) '(-0.608864 -0.191108 0.283982) 0 0)
(cx-use-window-id 51)
(cx-set-camera-relative '(-0.030725 -0.0379739 -0.0483734) '(0 0 0) '(0.42329 0.192187 -0.237053) 0 0)
(cx-use-window-id 51)
(cx-set-camera-relative '(-0.011207 -0.00634692 -0.00297627) '(0 0 0) '(0.0352553 0.00806832 -0.138318) 0 0)
(cx-use-window-id 51)
(cx-set-camera-relative '(0.000414215 0.000968099 -0.0162806) '(0 0 0) '(-0.00282501 0.000133634 0.0321581) 0 0)
(cx-use-window-id 51)
(cx-set-camera-relative '(-0.00438689 0.0454681 0.0104713) '(0 0 0) '(-0.0253794 -0.100551 0.425173) 0 0)
(cx-use-window-id 51)
(cx-set-camera-relative '(-0.00213375 0.009811 0.0063578) '(0 0 0) '(-0.0037915 -0.138867 0.212623) 0 0)
(cx-use-window-id 51)
(cx-set-camera-relative '(0.00195517 0.00334964 0.00365042) '(0 0 0) '(-0.0127872 -0.150543 0.142356) 0 0)
(cx-use-window-id 51)
(cx-set-camera-relative '(-0.00170627 0.00674608 0.0113325) '(0 0 0) '(-0.015672 -0.212761 0.124238) 0 0)
(cx-use-window-id 51)
(cx-set-camera-relative '(0.00197334 0.000393584 0.00132767) '(0 0 0) '(0.0059979 -0.0231876 0.0102857) 0 0)
(cx-use-window-id 51)
(cx-set-camera-relative '(-0.00652921 0.0115891 0.095213) '(0 0 0) '(-0.0447865 -0.508958 0.058679) 0 0)
(cx-use-window-id 51)
(cx-set-camera-relative '(0.00130651 0.000172321 -0.00275003) '(0 0 0) '(0.00379372 0.0927858 0.00884163) 0 0)
(cx-use-window-id 51)
(cx-set-camera-relative '(-0.000438288 -0.000385772 0.00329264) '(0 0 0) '(-0.0134258 -0.145113 -0.0187888) 0 0)
(cx-use-window-id 51)
(cx-set-camera-relative '(-0.00128689 0.000605155 -0.00320164) '(0 0 0) '(0.000547081 0.0743849 0.0115142) 0 0)
(cx-use-window-id 51)
(cx-set-camera-relative '(0.00356322 -0.00679323 -0.0374608) '(0 0 0) '(0.0445521 0.569574 -0.0990767) 0 0)
(cx-use-window-id 51)
(cx-set-camera-relative '(0.00113905 -0.0112694 -0.0118674) '(0 0 0) '(0.0711906 0.405601 -0.378334) 0 0)
(cx-use-window-id 51)
(cx-set-camera-relative '(-0.000364445 -0.0256441 -0.00914685) '(0 0 0) '(0.047417 0.126514 -0.356782) 0 0)
(cx-use-window-id 51)
(cx-set-camera-relative '(0.0156958 0.025073 0.013435) '(0 0 0) '(-0.252551 -0.120497 0.292362) 0 0)
(cx-use-window-id 51)
(cx-set-camera-relative '(0.00688498 -0.0042786 0.00158928) '(0 0 0) '(0.0430784 0.0562379 -0.106887) 0 0)
(cx-use-window-id 51)
(cx-set-camera-relative '(-0.00444523 0.00154738 -0.00197097) '(0 0 0) '(-0.0150864 -0.0173739 0.036816) 0 0)
(cx-gui-do cx-set-list-tree-selections "NavigationPane*Frame2*Table1*List_Tree2" (list "Results|Graphics|Vectors"))
(cx-gui-do cx-set-list-tree-selections "NavigationPane*Frame2*Table1*List_Tree2" (list "Results|Graphics|Vectors"))
(cx-gui-do cx-activate-item "NavigationPane*Frame2*Table1*List_Tree2")
(cx-gui-do cx-set-list-tree-selections "NavigationPane*Frame2*Table1*List_Tree2" (list "Results|Graphics|Vectors"))
(cx-gui-do cx-set-real-entry-list "Vectors*Table1*Frame2*Frame3*RealEntry1(Scale)" '( 0.8))
(cx-gui-do cx-set-list-selections "Vectors*Table1*Table3*Frame6*List2(Surfaces)" '( 2))
(cx-gui-do cx-activate-item "Vectors*Table1*Table3*Frame6*List2(Surfaces)")
(cx-gui-do cx-set-list-selections "Vectors*Table1*Table3*Frame6*List2(Surfaces)" '( 1 2))
(cx-gui-do cx-activate-item "Vectors*Table1*Table3*Frame6*List2(Surfaces)")
(cx-gui-do cx-set-list-selections "Vectors*Table1*Table3*Frame6*List2(Surfaces)" '( 0 1 2))
(cx-gui-do cx-activate-item "Vectors*Table1*Table3*Frame6*List2(Surfaces)")
(cx-gui-do cx-set-list-selections "Vectors*Table1*Table3*Frame6*List2(Surfaces)" '( 0 1 2 3))
(cx-gui-do cx-activate-item "Vectors*Table1*Table3*Frame6*List2(Surfaces)")
(cx-gui-do cx-set-list-selections "Vectors*Table1*Table3*Frame6*List2(Surfaces)" '( 0 1 2 3 4))
(cx-gui-do cx-activate-item "Vectors*Table1*Table3*Frame6*List2(Surfaces)")
(cx-gui-do cx-set-list-selections "Vectors*Table1*Table3*Frame6*List2(Surfaces)" '( 0 1 2 3 4 5))
(cx-gui-do cx-activate-item "Vectors*Table1*Table3*Frame6*List2(Surfaces)")
(cx-gui-do cx-activate-item "Vectors*PanelButtons*PushButton1(OK)")
(cx-gui-do cx-activate-item "Vectors*PanelButtons*PushButton2(Cancel)")
(cx-use-window-id 51)
(cx-set-camera-relative '(-0.0121391 0.022042 0.0226717) '(0 0 0) '(-0.241452 -0.628643 0.481803) 0 0)
(cx-use-window-id 51)
(cx-set-camera-relative '(0.00050414 -0.00172793 -0.00439826) '(0 0 0) '(0.0229417 0.185668 -0.0721983) 0 0)
(cx-use-window-id 51)
(cx-set-camera-relative '(-0.00115018 0.00133728 0.00389311) '(0 0 0) '(-0.0355984 -0.31535 0.0976032) 0 0)
(cx-use-window-id 51)
(cx-set-camera-relative '(-0.000697367 0.000121588 0.00314999) '(0 0 0) '(-0.00839633 -0.210972 0.00593841) 0 0)
(cx-use-window-id 51)
(cx-set-camera-relative '(0.00139293 -0.00158517 -0.009399) '(0 0 0) '(-0.000523388 0.43914 -0.0819709) 0 0)
(cx-use-window-id 51)
(cx-set-camera-relative '(-0.0150038 -0.0166859 -0.00734646) '(0 0 0) '(0.562582 0.617363 -0.759562) 0 0)
(cx-use-window-id 51)
(cx-set-camera-relative '(-0.0109132 0.000582908 0.0124455) '(0 0 0) '(0.00191809 -9.91821e-05 -0.00227576) 0 0)
(cx-use-window-id 51)
(cx-set-camera-relative '(-1.85519e-05 0.00072874 0.000203729) '(0 0 0) '(0.0412336 -0.00671667 0.0278627) 0 0)
(cx-use-window-id 51)
(cx-set-camera-relative '(0.00526342 0.0119348 0.00307136) '(0 0 0) '(0.464587 -0.279255 0.288496) 0 0)
(cx-use-window-id 51)
(cx-set-camera-relative '(0.0131311 0.00902219 0.00719955) '(0 0 0) '(0.200335 -0.406353 0.146229) 0 0)
(cx-gui-do cx-set-list-tree-selections "NavigationPane*Frame2*Table1*List_Tree2" (list "Results|Graphics|Vectors"))
(cx-gui-do cx-set-list-tree-selections "NavigationPane*Frame2*Table1*List_Tree2" (list "Results|Graphics|Vectors"))
(cx-gui-do cx-activate-item "NavigationPane*Frame2*Table1*List_Tree2")
(cx-gui-do cx-set-list-tree-selections "NavigationPane*Frame2*Table1*List_Tree2" (list "Results|Graphics|Vectors"))
(cx-gui-do cx-set-real-entry-list "Vectors*Table1*Frame2*Frame3*RealEntry1(Scale)" '( 0.5))
(cx-gui-do cx-set-list-selections "Vectors*Table1*Table3*Frame6*List2(Surfaces)" '( 4))
(cx-gui-do cx-activate-item "Vectors*Table1*Table3*Frame6*List2(Surfaces)")
(cx-gui-do cx-set-list-selections "Vectors*Table1*Table3*Frame6*List2(Surfaces)" '( 3 4))
(cx-gui-do cx-activate-item "Vectors*Table1*Table3*Frame6*List2(Surfaces)")
(cx-gui-do cx-set-list-selections "Vectors*Table1*Table3*Frame6*List2(Surfaces)" '( 2 3 4))
(cx-gui-do cx-activate-item "Vectors*Table1*Table3*Frame6*List2(Surfaces)")
(cx-gui-do cx-set-list-selections "Vectors*Table1*Table3*Frame6*List2(Surfaces)" '( 1 2 3 4))
(cx-gui-do cx-activate-item "Vectors*Table1*Table3*Frame6*List2(Surfaces)")
(cx-gui-do cx-set-list-selections "Vectors*Table1*Table3*Frame6*List2(Surfaces)" '( 1 2 3 4 5))
(cx-gui-do cx-activate-item "Vectors*Table1*Table3*Frame6*List2(Surfaces)")
(cx-gui-do cx-set-list-selections "Vectors*Table1*Table3*Frame6*List2(Surfaces)" '( 0 1 2 3 4 5))
(cx-gui-do cx-activate-item "Vectors*Table1*Table3*Frame6*List2(Surfaces)")
(cx-gui-do cx-activate-item "Vectors*PanelButtons*PushButton1(OK)")
(cx-use-window-id 51)
[...]
(cx-gui-do cx-set-list-selections "Contours*Table1*Frame3*Frame2*List2(Surfaces)" '())
(cx-gui-do cx-activate-item "Contours*Table1*Frame3*Frame2*List2(Surfaces)")
(cx-gui-do cx-set-list-selections "Contours*Table1*Frame3*Frame2*List2(Surfaces)" '( 2))
(cx-gui-do cx-activate-item "Contours*Table1*Frame3*Frame2*List2(Surfaces)")
(cx-gui-do cx-set-list-selections "Contours*Table1*Frame3*Frame2*List2(Surfaces)" '( 1 2))
(cx-gui-do cx-activate-item "Contours*Table1*Frame3*Frame2*List2(Surfaces)")
(cx-gui-do cx-set-list-selections "Contours*Table1*Frame3*Frame2*List2(Surfaces)" '( 0 1 2))
(cx-gui-do cx-activate-item "Contours*Table1*Frame3*Frame2*List2(Surfaces)")
(cx-gui-do cx-set-list-selections "Contours*Table1*Frame3*Frame2*List2(Surfaces)" '( 0 1 2 5))
(cx-gui-do cx-activate-item "Contours*Table1*Frame3*Frame2*List2(Surfaces)")
(cx-gui-do cx-set-list-selections "Contours*Table1*Frame3*Frame2*List2(Surfaces)" '( 0 1 2 5 6))
(cx-gui-do cx-activate-item "Contours*Table1*Frame3*Frame2*List2(Surfaces)")
(cx-gui-do cx-activate-item "Contours*PanelButtons*PushButton1(OK)")
(cx-use-window-id 51)
(cx-set-camera-relative '(0.0862862 0.0217241 -0.037138) '(0 0 0) '(0.0111206 -0.374318 -0.175925) 0 0)
(cx-use-window-id 51)
(cx-set-camera-relative '(-0.0290023 0.0376798 0.0165039) '(0 0 0) '(-0.0709659 0.167145 0.0345272) 0 0)
(cx-use-window-id 51)
(cx-set-camera-relative '(0.0263417 0.00981174 -0.0261213) '(0 0 0) '(0.0175084 -0.214828 -0.0597969) 0 0)
(cx-use-window-id 51)
(cx-set-camera-relative '(-0.0215812 -0.0149406 0.0166294) '(0 0 0) '(-0.063864 0.575877 0.312751) 0 0)
(cx-use-window-id 51)
(cx-set-camera-relative '(-0.0015109 -0.00489297 0.00211218) '(0 0 0) '(0.101739 0.20412 0.5054) 0 0)
(cx-use-window-id 51)
(cx-set-camera-relative '(-0.00605392 -0.0010216 -0.00744151) '(0 0 0) '(-0.0555795 0.0184786 0.028388) 0 0)
(cx-use-window-id 51)
(cx-set-camera-relative '(0.00618666 0.0174613 -0.00911609) '(0 0 0) '(0.384061 -0.208825 -0.113946) 0 0)
(cx-use-window-id 51)
(cx-set-camera-relative '(0.0233313 0.0196927 -0.00592107) '(0 0 0) '(0.210714 -0.269993 -0.0672887) 0 0)
(cx-use-window-id 51)
(cx-set-camera-relative '(0.0221196 0.00869455 -0.00773601) '(0 0 0) '(0.102562 -0.290444 -0.033176) 0 0)
(cx-use-window-id 51)
(cx-set-camera-relative '(-0.015128 -0.00620935 0.004692) '(0 0 0) '(-0.120208 0.321656 0.0379786) 0 0)
(cx-gui-do cx-activate-item "Contours*PanelButtons*PushButton2(Cancel)")
(cx-gui-do cx-set-list-tree-selections "NavigationPane*Frame2*Table1*List_Tree2" (list "Results|Graphics|Pathlines|pathlines-1"))
(cx-gui-do cx-set-list-tree-selections "NavigationPane*Frame2*Table1*List_Tree2" (list "Results|Graphics|Pathlines|pathlines-1"))
(cx-gui-do cx-activate-item "NavigationPane*Frame2*Table1*List_Tree2")
(cx-gui-do cx-set-list-tree-selections "NavigationPane*Frame2*Table1*List_Tree2" (list "Results|Graphics|Pathlines|pathlines-1"))
(cx-gui-do cx-set-integer-entry "Pathlines*Frame3*Frame2*IntegerEntry3(Steps)" 600)
(cx-gui-do cx-activate-item "Pathlines*Frame3*Frame2*IntegerEntry3(Steps)")
(cx-gui-do cx-set-integer-entry "Pathlines*Frame3*Frame2*IntegerEntry3(Steps)" 700)
(cx-gui-do cx-activate-item "Pathlines*Frame3*Frame2*IntegerEntry3(Steps)")
(cx-gui-do cx-set-integer-entry "Pathlines*Frame3*Frame2*IntegerEntry3(Steps)" 800)
(cx-gui-do cx-activate-item "Pathlines*Frame3*Frame2*IntegerEntry3(Steps)")
(cx-gui-do cx-set-integer-entry "Pathlines*Frame3*Frame2*IntegerEntry3(Steps)" 900)
(cx-gui-do cx-activate-item "Pathlines*Frame3*Frame2*IntegerEntry3(Steps)")
(cx-gui-do cx-set-integer-entry "Pathlines*Frame3*Frame2*IntegerEntry3(Steps)" 1000)
(cx-gui-do cx-activate-item "Pathlines*Frame3*Frame2*IntegerEntry3(Steps)")
(cx-gui-do cx-set-integer-entry "Pathlines*Frame3*Frame2*IntegerEntry5(Path Coarsen)" 2)
(cx-gui-do cx-activate-item "Pathlines*Frame3*Frame2*IntegerEntry5(Path Coarsen)")
(cx-gui-do cx-set-integer-entry "Pathlines*Frame3*Frame2*IntegerEntry5(Path Coarsen)" 3)
(cx-gui-do cx-activate-item "Pathlines*Frame3*Frame2*IntegerEntry5(Path Coarsen)")
(cx-gui-do cx-set-integer-entry "Pathlines*Frame3*Frame2*IntegerEntry5(Path Coarsen)" 2)
(cx-gui-do cx-activate-item "Pathlines*Frame3*Frame2*IntegerEntry5(Path Coarsen)")
(cx-gui-do cx-activate-item "Pathlines*PanelButtons*PushButton1(OK)")

number tracked = 893, escaped = 685, incomplete = 208
(cx-use-window-id 51)
(cx-set-camera-relative '(0.0071145 -0.00833075 0.033935) '(0 0 0) '(-0.22741 0.102089 -0.243722) 0 0)
(cx-gui-do cx-set-integer-entry "Pathlines*Frame3*Frame2*IntegerEntry3(Steps)" 900)
(cx-gui-do cx-activate-item "Pathlines*Frame3*Frame2*IntegerEntry3(Steps)")
(cx-gui-do cx-set-integer-entry "Pathlines*Frame3*Frame2*IntegerEntry3(Steps)" 800)
(cx-gui-do cx-activate-item "Pathlines*Frame3*Frame2*IntegerEntry3(Steps)")
(cx-gui-do cx-activate-item "Pathlines*PanelButtons*PushButton1(OK)")

number tracked = 893, escaped = 76, incomplete = 817
(cx-gui-do cx-set-integer-entry "Pathlines*Frame3*Frame2*IntegerEntry5(Path Coarsen)" 1)
(cx-gui-do cx-activate-item "Pathlines*Frame3*Frame2*IntegerEntry5(Path Coarsen)")
(cx-gui-do cx-activate-item "Pathlines*PanelButtons*PushButton1(OK)")

number tracked = 893, escaped = 76, incomplete = 817
(cx-gui-do cx-set-integer-entry "Pathlines*Frame3*Frame2*IntegerEntry3(Steps)" 700)
(cx-gui-do cx-activate-item "Pathlines*Frame3*Frame2*IntegerEntry3(Steps)")
(cx-gui-do cx-set-integer-entry "Pathlines*Frame3*Frame2*IntegerEntry3(Steps)" 600)
(cx-gui-do cx-activate-item "Pathlines*Frame3*Frame2*IntegerEntry3(Steps)")
(cx-gui-do cx-activate-item "Pathlines*PanelButtons*PushButton1(OK)")

number tracked = 893, incomplete = 893
(cx-gui-do cx-set-integer-entry "Pathlines*Frame3*Frame2*IntegerEntry3(Steps)" 500)
(cx-gui-do cx-activate-item "Pathlines*Frame3*Frame2*IntegerEntry3(Steps)")
(cx-gui-do cx-set-integer-entry "Pathlines*Frame3*Frame2*IntegerEntry3(Steps)" 400)
(cx-gui-do cx-activate-item "Pathlines*Frame3*Frame2*IntegerEntry3(Steps)")
(cx-gui-do cx-set-integer-entry "Pathlines*Frame3*Frame2*IntegerEntry3(Steps)" 300)
(cx-gui-do cx-activate-item "Pathlines*Frame3*Frame2*IntegerEntry3(Steps)")
(cx-gui-do cx-set-integer-entry "Pathlines*Frame3*Frame2*IntegerEntry3(Steps)" 400)
(cx-gui-do cx-activate-item "Pathlines*Frame3*Frame2*IntegerEntry3(Steps)")
(cx-gui-do cx-set-integer-entry "Pathlines*Frame3*Frame2*IntegerEntry3(Steps)" 500)
(cx-gui-do cx-activate-item "Pathlines*Frame3*Frame2*IntegerEntry3(Steps)")
(cx-gui-do cx-set-integer-entry "Pathlines*Frame3*Frame2*IntegerEntry3(Steps)" 600)
(cx-gui-do cx-activate-item "Pathlines*Frame3*Frame2*IntegerEntry3(Steps)")
(cx-gui-do cx-set-integer-entry "Pathlines*Frame3*Frame2*IntegerEntry3(Steps)" 700)
(cx-gui-do cx-activate-item "Pathlines*Frame3*Frame2*IntegerEntry3(Steps)")
(cx-gui-do cx-set-integer-entry "Pathlines*Frame3*Frame2*IntegerEntry3(Steps)" 800)
(cx-gui-do cx-activate-item "Pathlines*Frame3*Frame2*IntegerEntry3(Steps)")
(cx-gui-do cx-activate-item "Pathlines*PanelButtons*PushButton1(OK)")

number tracked = 893, escaped = 76, incomplete = 817
(cx-use-window-id 51)
(cx-set-camera-relative '(0.028837 0.0199704 -0.0278087) '(0 0 0) '(0.181343 -0.374635 -0.0737262) 0 0)
(cx-use-window-id 51)
(cx-set-camera-relative '(-0.0146101 -0.00976058 0.00996898) '(0 0 0) '(-0.183422 0.443841 0.165489) 0 0)
(cx-use-window-id 51)
(cx-set-camera-relative '(0.00404125 0.00335693 -0.00366486) '(0 0 0) '(0.214141 -0.356223 -0.0770192) 0 0)
(cx-use-window-id 51)
(cx-set-camera-relative '(-0.00706281 -0.00572344 0.00470608) '(0 0 0) '(-0.226752 0.412383 0.161278) 0 0)
(cx-use-window-id 51)
(cx-set-camera-relative '(0.00524899 0.00312878 -0.00323676) '(0 0 0) '(0.272087 -0.651919 -0.189269) 0 0)
(cx-use-window-id 51)
(cx-set-camera-relative '(0.00510892 -0.0127745 0.0207684) '(0 0 0) '(-0.549806 0.694402 -0.0013001) 0 0)
(cx-use-window-id 51)
(cx-set-camera-relative '(-0.0109297 -0.019396 0.00698268) '(0 0 0) '(-0.0809757 0.184546 0.449991) 0 0)
(cx-use-window-id 51)
(cx-set-camera-relative '(-0.0082851 0.0267837 -0.0123962) '(0 0 0) '(0.0718749 -0.167958 -0.429943) 0 0)
(cx-use-window-id 51)
(cx-set-camera-relative '(-0.0387792 0.00750081 -0.034474) '(0 0 0) '(0.211058 -0.050247 0.0863173) 0 0)
(cx-use-window-id 51)
(cx-set-camera-relative '(0.0232583 0.0222421 -0.0230399) '(0 0 0) '(0.228883 -0.418652 -0.174273) 0 0)
(cx-gui-do cx-set-integer-entry "Pathlines*Frame3*Frame2*IntegerEntry3(Steps)" 900)
(cx-gui-do cx-activate-item "Pathlines*Frame3*Frame2*IntegerEntry3(Steps)")
(cx-gui-do cx-set-integer-entry "Pathlines*Frame3*Frame2*IntegerEntry3(Steps)" 1000)
(cx-gui-do cx-activate-item "Pathlines*Frame3*Frame2*IntegerEntry3(Steps)")
(cx-gui-do cx-activate-item "Pathlines*PanelButtons*PushButton1(OK)")

number tracked = 893, escaped = 685, incomplete = 208
(cx-use-window-id 51)
(cx-set-camera-relative '(-0.0204964 -0.0613247 0.0429965) '(0 0 0) '(-0.643515 0.659745 0.619231) 0 0)
(cx-use-window-id 51)
(cx-set-camera-relative '(0.00853941 0.00248484 0.00753386) '(0 0 0) '(0.0324713 -0.00776547 -0.107123) 0 0)
(cx-use-window-id 51)
(cx-set-camera-relative '(0.00347612 0.000612034 0.000546228) '(0 0 0) '(-0.010002 -0.00286663 -0.0333441) 0 0)
(cx-use-window-id 51)
(cx-set-camera-relative '(-0.00624498 0.000389229 -0.00203222) '(0 0 0) '(0.0139884 -0.000913024 0.0041144) 0 0)
(cx-use-window-id 51)
(cx-set-camera-relative '(0.00841798 0.0178007 -0.00483711) '(0 0 0) '(0.0245705 -0.199594 -0.475655) 0 0)
(cx-use-window-id 51)
(cx-set-camera-relative '(0.00814646 0.0094624 -0.0116883) '(0 0 0) '(0.0637407 -0.448128 -0.316888) 0 0)
(cx-use-window-id 51)
(cx-set-camera-relative '(0.00230685 0.00104496 -0.00983178) '(0 0 0) '(-0.0398939 -0.467552 -0.0589204) 0 0)
(cx-use-window-id 51)
(cx-set-camera-relative '(-0.00451978 -0.00245913 0.0131877) '(0 0 0) '(0.0107602 0.610734 0.118836) 0 0)
(cx-use-window-id 51)
(cx-set-camera-relative '(0.00418722 0.00459302 -0.0392828) '(0 0 0) '(0.0206257 -0.746249 -0.0854349) 0 0)
(cx-use-window-id 51)
(cx-set-camera-relative '(-0.00511782 0.000394717 0.0158461) '(0 0 0) '(-0.0269503 0.464527 -0.0207561) 0 0)
(cx-use-window-id 51)
(cx-set-camera-relative '(0.00998309 0.000766441 -0.0256788) '(0 0 0) '(0.0241079 -0.369543 -0.00137264) 0 0)
(cx-use-window-id 51)
(cx-set-camera-relative '(-0.00185486 0.000301596 0.00621499) '(0 0 0) '(-0.00854853 0.237593 -0.0140278) 0 0)
(cx-use-window-id 51)
(cx-set-camera-relative '(-0.00234859 -0.00436335 0.0127269) '(0 0 0) '(-0.052679 0.480887 0.155054) 0 0)
(cx-use-window-id 51)
(cx-set-camera-relative '(-0.000462143 -0.00116942 0.0014242) '(0 0 0) '(-0.0274887 0.122415 0.0916576) 0 0)
(cx-use-window-id 51)
(cx-set-camera-relative '(-0.00588491 -0.0379242 0.0249248) '(0 0 0) '(-0.104404 0.260739 0.371684) 0 0)
(cx-use-window-id 51)
(cx-set-camera-relative '(0.0053255 -0.00932325 0.00211812) '(0 0 0) '(-0.0440345 0.0647022 0.433599) 0 0)
(cx-use-window-id 51)
(cx-set-camera-relative '(0.00309649 0.00283226 -0.000157796) '(0 0 0) '(0.0467012 0.0021069 -0.127091) 0 0)
(cx-use-window-id 51)
(cx-set-camera-relative '(0.00171143 0.0257694 -0.00868103) '(0 0 0) '(-0.078051 -0.154804 -0.473752) 0 0)
(cx-use-window-id 51)
(cx-set-camera-relative '(0.0038696 0.0391869 -0.0754422) '(0 0 0) '(-0.194445 -0.809153 -0.429875) 0 0)
(cx-use-window-id 51)
(cx-set-camera-relative '(0.00288326 -0.0121626 -0.0229875) '(0 0 0) '(-0.187708 -0.630295 0.304661) 0 0)
(cx-use-window-id 51)
(cx-set-camera-relative '(-0.00477544 -0.0176025 -0.00763828) '(0 0 0) '(-0.142523 -0.190698 0.536673) 0 0)
(cx-use-window-id 51)
(cx-set-camera-relative '(-0.00221683 -0.00172735 -0.000209477) '(0 0 0) '(-0.0116422 1.00136e-05 0.122154) 0 0)
(cx-use-window-id 51)
(cx-set-camera-relative '(0.000777062 0.00112944 3.34773e-05) '(0 0 0) '(0.0053829 -0.00204706 -0.0612251) 0 0)
(cx-use-window-id 51)
(cx-set-camera-relative '(-0.00335546 -0.00630181 0.000126846) '(0 0 0) '(-0.00575423 0.00558561 0.129881) 0 0)
(cx-use-window-id 51)
(cx-set-camera-relative '(0.00404702 0.0019985 4.82611e-05) '(0 0 0) '(0.00447547 -0.00674635 -0.0755096) 0 0)
(cx-use-window-id 51)
(cx-set-camera-relative '(-0.033379 -0.0393595 0.0309035) '(0 0 0) '(0.223197 0.501309 0.878502) 0 0)
(cx-use-window-id 51)
(cx-set-camera-relative '(0.00132969 -0.00173792 0.052031) '(0 0 0) '(0.463518 0.743728 0.0131545) 0 0)
(cx-use-window-id 51)
(cx-set-camera-relative '(-0.00836014 0.0222681 0.00177487) '(0 0 0) '(0.110503 0.521741 -0.997368) 0 0)
(cx-use-window-id 51)
(cx-set-camera-relative '(7.54185e-05 -0.0286337 -0.00761729) '(0 0 0) '(-0.584346 -0.0814648 0.302307) 0 0)
(cx-use-window-id 51)
(cx-set-camera-relative '(-0.00477126 0.0331913 0.0106059) '(0 0 0) '(0.220953 0.0619078 -0.418054) 0 0)
(cx-use-window-id 51)
(cx-set-camera-relative '(0.0157222 0.0465637 0.0126085) '(0 0 0) '(0.30462 -0.0380671 -0.147884) 0 0)
(cx-use-window-id 51)
(cx-set-camera-relative '(0.067882 0.121032 -0.0759216) '(0 0 0) '(0.44366 -0.428508 -0.287572) 0 0)
(cx-use-window-id 51)
(cx-set-camera-relative '(-0.0350779 -0.0502148 0.0457969) '(0 0 0) '(-0.482709 0.456324 0.351663) 0 0)
(cx-use-window-id 51)
(cx-set-camera-relative '(-0.00180725 0.00369939 -0.00440788) '(0 0 0) '(0.0843914 -0.0397481 -0.0752887) 0 0)
(cx-use-window-id 51)
(cx-set-camera-relative '(0.0358653 0.0421814 -0.0317153) '(0 0 0) '(0.537659 -0.664227 -0.279591) 0 0)
(cx-use-window-id 51)
(cx-set-camera-relative '(-0.0206598 -0.034943 0.0255912) '(0 0 0) '(-0.637814 0.740521 0.498262) 0 0)
(cx-use-window-id 51)
(cx-set-camera-relative '(0.0498044 0.00687896 0.0337374) '(0 0 0) '(-0.0307715 -0.0077309 -0.0485823) 0 0)
(cx-use-window-id 51)
(cx-set-camera-relative '(0.00585979 -0.00242947 0.00194265) '(0 0 0) '(-0.0169485 0.0178691 0.105733) 0 0)
(cx-use-window-id 51)
(cx-set-camera-relative '(-0.0027004 -0.00136474 -0.000241913) '(0 0 0) '(5.55739e-05 0.0018034 0.0179924) 0 0)
(cx-use-window-id 51)
(cx-set-camera-relative '(0.0110847 0.082298 -0.0484344) '(0 0 0) '(0.0908885 -0.446913 -0.737766) 0 0)
(cx-use-window-id 51)
(cx-set-camera-relative '(0.00402277 0.00387938 -0.0118639) '(0 0 0) '(-0.0213104 -0.490614 -0.165872) 0 0)
(cx-use-window-id 51)
(cx-set-camera-relative '(0.00301773 -0.000677828 -0.00234759) '(0 0 0) '(-0.041052 -0.171885 0.00183368) 0 0)
(cx-use-window-id 51)
(cx-set-camera-relative '(-0.00270099 0.000248922 0.00608487) '(0 0 0) '(0.0764299 0.321425 0.0223683) 0 0)
(cx-use-window-id 51)
(cx-set-camera-relative '(-0.00284655 -0.00226796 0.00609686) '(0 0 0) '(0.0403313 0.315624 0.134407) 0 0)
(cx-use-window-id 51)
(cx-set-camera-relative '(0.000731355 0.0137051 -0.00332179) '(0 0 0) '(-0.0121997 -0.294699 -0.125575) 0 0)
(cx-use-window-id 51)
(cx-set-camera-relative '(0.00198333 0.000508193 -0.00409953) '(0 0 0) '(-0.0156269 -0.152349 -0.0262331) 0 0)
(cx-use-window-id 51)
(cx-set-camera-relative '(0.000944927 -0.00127 0.00338942) '(0 0 0) '(0.0960993 0.358894 0.118333) 0 0)
(cx-use-window-id 51)
(cx-set-camera-relative '(-0.00571201 -0.00060139 -0.0057379) '(0 0 0) '(-0.0210375 -0.12298 -0.0565075) 0 0)
(cx-use-window-id 51)
(cx-set-camera-relative '(-0.0102486 -0.0481664 0.0277245) '(0 0 0) '(-0.134882 0.667556 1.11) 0 0)
(cx-use-window-id 51)
(cx-set-camera-relative '(-0.00373179 0.0183381 -0.00249385) '(0 0 0) '(0.0290949 -0.0313933 -0.482545) 0 0)
(cx-gui-do cx-activate-item "Pathlines*PanelButtons*PushButton2(Cancel)")
(cx-use-window-id 51)
(cx-set-camera-relative '(0.00949802 0.0381089 -0.0349732) '(0 0 0) '(0.207817 -0.580909 -0.576525) 0 0)
(cx-use-window-id 51)
(cx-set-camera-relative '(0.00259279 0.00142316 -0.00426175) '(0 0 0) '(0.0162255 -0.180389 -0.0497882) 0 0)
(cx-use-window-id 51)
(cx-set-camera-relative '(-0.0161455 -0.00314994 -0.00776316) '(0 0 0) '(0.00268909 -0.0284764 -0.00434947) 0 0)
(cx-use-window-id 51)
(cx-set-camera-relative '(0.0047997 -0.0284691 0.0533625) '(0 0 0) '(-0.419457 0.678213 0.3878) 0 0)
(cx-use-window-id 51)
(cx-set-camera-relative '(0.0201964 0.0135979 -0.00294513) '(0 0 0) '(0.0269509 -0.0529515 -0.07731) 0 0)
(cx-use-window-id 51)
(cx-set-camera-relative '(-0.00297862 0.00648506 -0.00701233) '(0 0 0) '(0.0703117 -0.133813 -0.141496) 0 0)
(cx-use-window-id 51)
(cx-set-camera-relative '(0.0230868 0.00431062 -0.00921936) '(0 0 0) '(-0.0497704 -0.209977 -0.137453) 0 0)
(cx-use-window-id 51)
(cx-set-camera-relative '(0.00441528 -0.00230544 -0.000375288) '(0 0 0) '(0.0198147 0.0309264 0.0152431) 0 0)
(cx-use-window-id 51)
(cx-set-camera-relative '(-0.0179675 -0.0125748 0.0199945) '(0 0 0) '(0.130259 0.430694 0.464679) 0 0)
(cx-use-window-id 51)
(cx-set-camera-relative '(-0.0252556 0.016354 -0.0137563) '(0 0 0) '(0.0428458 -0.140065 -0.211613) 0 0)
(cx-use-window-id 51)
(cx-set-camera-relative '(0.00845309 0.0176485 -0.0215961) '(0 0 0) '(-0.0238072 -0.353416 -0.274352) 0 0)
(cx-use-window-id 51)
(cx-set-camera-relative '(-0.00580265 -0.024664 0.0326654) '(0 0 0) '(-0.0776464 0.341831 0.244144) 0 0)
(cx-use-window-id 51)
(cx-set-camera-relative '(0.000244696 0.00440188 -0.00312184) '(0 0 0) '(0.0768155 -0.302199 -0.225283) 0 0)
(cx-use-window-id 51)
(cx-set-camera-relative '(0.00393865 0.00601505 -0.0207715) '(0 0 0) '(0.0491662 -0.361987 -0.095465) 0 0)
(cx-use-window-id 51)
(cx-set-camera-relative '(-0.00344017 -0.0765204 0.0984129) '(0 0 0) '(-0.139049 0.86318 0.667349) 0 0)
(cx-use-window-id 51)
(cx-set-camera-relative '(0.00105543 -0.00658827 0.00178773) '(0 0 0) '(-0.0169615 0.0368075 0.146292) 0 0)
(cx-use-window-id 51)
(cx-set-camera-relative '(-0.0023414 -0.000596203 -0.000309888) '(0 0 0) '(0.00169279 0.00488114 0.0323831) 0 0)
(cx-use-window-id 51)
(cx-set-camera-relative '(0.0058245 -0.00358441 0.000598725) '(0 0 0) '(-0.0164723 0.00793648 0.186921) 0 0)
(cx-use-window-id 51)
(cx-set-camera-relative '(0.00498219 -8.08737e-05 0.00315019) '(0 0 0) '(6.79865e-08 -5.96046e-08 -1.49012e-08) 0 0)
(cx-use-window-id 51)
(cx-set-camera-relative '(-0.00879193 0.000136017 0.00163926) '(0 0 0) '(-0.00339065 0.000189483 -0.00313026) 0 0)
(cx-use-window-id 51)
(cx-set-camera-relative '(-0.00382825 0.00779737 0.00015644) '(0 0 0) '(-0.00499516 -0.000258803 -0.104738) 0 0)
(cx-gui-do cx-activate-item "MenuBar*WriteSubMenu*Case & Data...")
(cx-gui-do cx-set-file-dialog-entries "Select File" '( "cathod.cas.h5") "CFF Case/Data Files (*.cas.h5 *.dat.h5 )")
Fast-loading "E:\Ansys\Ansys.Products.2022.R1.Win64\Program Files\ANSYS Inc\v221\fluent\fluent22.1.0\\addons\afd\lib\hdfio.bin"
Done.
(cx-gui-do cx-activate-item "Question*OK")

Writing to DESKTOP-6MJKVPJ:"D:/Objects3D/fluent/fuelCell/H2BIKE/fluent/cathod.cas.h5" in NODE0 mode and compression level 1 ...
  Writing mesh ...
      714147 cells,     1 zone  ...
     3012677 faces,     7 zones ...
     1659080 nodes,     1 zone  ...
  Done.
Done.

Writing to DESKTOP-6MJKVPJ:"D:/Objects3D/fluent/fuelCell/H2BIKE/fluent/cathod.dat.h5" in NODE0 mode and compression level 1 ...
  Writing results.
Done.
(cx-use-window-id 51)
(cx-set-camera-relative '(-0.000359412 0.0120317 -0.00286304) '(0 0 0) '(-0.00674727 -0.0826089 -0.346466) 0 0)
(cx-use-window-id 51)
(cx-set-camera-relative '(0.0698488 -0.0173932 -0.0361542) '(0 0 0) '(0.018084 0.00468618 0.0110449) 0 0)
(cx-use-window-id 51)
(cx-set-camera-relative '(-0.0428785 -0.00375103 0.0557033) '(0 0 0) '(0.0882478 0.0216249 0.0709234) 0 0)
(cx-use-window-id 51)
(cx-set-camera-relative '(-0.0591161 0.150197 -0.0394355) '(0 0 0) '(-0.27295 -0.194844 -0.322442) 0 0)
(cx-use-window-id 51)
(cx-set-camera-relative '(-0.0714446 0.110809 -0.142072) '(0 0 0) '(-0.212753 -0.421796 -0.222082) 0 0)
(cx-use-window-id 51)
(cx-use-window-id 51)
(cx-set-camera-relative '(0.0290912 -0.0152442 -0.00130329) '(0 0 0) '(0.0774677 0.142068 0.0349629) 0 0)
(cx-use-window-id 51)
(cx-set-camera-relative '(-0.0156961 0.00952564 -0.00673907) '(0 0 0) '(-0.126346 -0.257994 -0.0476817) 0 0)
(cx-use-window-id 51)
(cx-set-camera-relative '(-0.00284353 0.000434617 -0.00491659) '(0 0 0) '(-0.0664738 -0.284004 0.0134681) 0 0)
/exit y
Auto-Transcript Stop Time:  01:08:46, 20 Dec 2023 中国标准时间 
Total Transcript Time: 50 Minute 23 Second.
