Auto-Transcript Start Time:  16:58:37, 19 Dec 2023 中国标准时间 
Current Directory: "D:\Objects3D\fluent\fuelCell\H2BIKE\fluent"

              Welcome to ANSYS Fluent 2022 R1

              Copyright 1987-2022 ANSYS, Inc. All Rights Reserved.
              Unauthorized use, distribution or duplication is prohibited.
              This product is subject to U.S. laws governing export and re-export.
              For full Legal Notice, see documentation.

Build Time: Nov 29 2021 12:14:46 EST  Build Id: 10213  
 
Connected License Server List:	
Host spawning Node 0 on machine "DESKTOP-6MJKVPJ" (win64).

------------------------------------------------------------------------------------------
ID    Hostname         Core  O.S.         PID    Vendor                                  
------------------------------------------------------------------------------------------
n7    DESKTOP-6MJKVPJ  8/20  Windows-x64  20084  12th Gen Intel(R) Core(TM) i7-12700H    
n6    DESKTOP-6MJKVPJ  7/20  Windows-x64  14676  12th Gen Intel(R) Core(TM) i7-12700H    
n5    DESKTOP-6MJKVPJ  6/20  Windows-x64  11656  12th Gen Intel(R) Core(TM) i7-12700H    
n4    DESKTOP-6MJKVPJ  5/20  Windows-x64  6436   12th Gen Intel(R) Core(TM) i7-12700H    
n3    DESKTOP-6MJKVPJ  4/20  Windows-x64  11896  12th Gen Intel(R) Core(TM) i7-12700H    
n2    DESKTOP-6MJKVPJ  3/20  Windows-x64  7100   12th Gen Intel(R) Core(TM) i7-12700H    
n1    DESKTOP-6MJKVPJ  2/20  Windows-x64  4392   12th Gen Intel(R) Core(TM) i7-12700H    
n0*   DESKTOP-6MJKVPJ  1/20  Windows-x64  17780  12th Gen Intel(R) Core(TM) i7-12700H    
host  DESKTOP-6MJKVPJ        Windows-x64  13964  12th Gen Intel(R) Core(TM) i7-12700H    

MPI Option Selected: intel
Selected system interconnect: default
------------------------------------------------------------------------------------------

Cleanup script file is D:\\Objects3D\\fluent\\fuelCell\\H2BIKE\\fluent\\cleanup-fluent-DESKTOP-6MJKVPJ-13964.bat
(cx-gui-do cx-activate-tab-index "NavigationPane*Frame1(TreeTab)" 0)

Meshing> (cx-gui-do cx-activate-item "MenuBar*ReadSubMenu*Mesh...")

Importing one geom object per program-controlled and one zone per body ...
    E:\\Ansys\\Ansys.Products.2022.R1.Win64\\Program Files\\ANSYS Inc\\v221\\commonfiles\\CPython\\3_7\\winx64\\Release\\python\\..\\Ansys\\TGrid\\CADReaders.py started by MelonJam on DESKTOP-6MJKVPJ winx64 on Tue Dec 19 16:59:16 2023
    using Python 3.7.11 (remotes/origin/b0b4eda9448d622fbb214539623a7f129f39e1f4-dirty:b0b4eda, Oct 18 20) [MSC v.1920 64 bit (AMD64)]
    
    using Ansys.Meshing.FieldMesher build Nov 30 2021 12:29:41 including TGLib build Nov 12 2019 13:13:16
    
    running ANSYS TGrid CADToTGridConverter ...
    setting up parameters ...
    setting up parameters done.
    running conversion ...
    converting 1 file(s) from Workbench to FLTG using output path 'D:\\Objects3D\\fluent\\fuelCell\\H2BIKE\\fluent\\FM_DESKTOP-6MJKVPJ_18384/out170297635518384.tgf'
    converting file 'anode.scdoc' (1 of 1) from Workbench to FLTG using output path 'D:\\Objects3D\\fluent\\fuelCell\\H2BIKE\\fluent\\FM_DESKTOP-6MJKVPJ_18384'
    importing data ...
    importing meshing model from PartMgr from file 'D:/Objects3D/fluent/fuelCell/H2BIKE/fluent/anode.scdoc' ...
    setting enclosure and symmetry processing to False
    setting transfer named selections to True
    setting named selection prefixes to ''
    setting mixed import resolution type to 'SolidAndSurface'
    setting target application to 'FluentMeshing'
    attaching to assembly ...
    attaching to assembly done in 3.585 [s]
    Warning: ?????????
    processing assembly 'D:\\Objects3D\\fluent\\fuelCell\\H2BIKE\\fluent\\anode.scdoc' with ID 1 and reference key '<?xml version="1.0" encoding="utf-16"?>
    <IdTable xmlns:xsd="http://www.w3.org/2001/XMLSchema" xmlns:xsi="http://www.w3.org/2001/XMLSchema-instance">
      <Table>
        <Entry>
          <Text>&lt;SnippetV1 sctype="SpaceClaim.OccurrenceMoniker`1[[SpaceClaim.IEvaluation, Core]], Core"&gt;&lt;instanceMoniker sctype="SpaceClaim.BasicMoniker`1[[SpaceClaim.IInstance, Core]], Core" refId="7682bd9b-a830-48c0-9553-1f1ee0f80937:5" /&gt;&lt;originalMoniker sctype="SpaceClaim.BasicMoniker`1[[SpaceClaim.IEvaluation, Core]], Core" refId="7682bd9b-a830-48c0-9553-1f1ee0f80937:1" /&gt;&lt;/SnippetV1&gt;</Text>
          <Id>10000</Id>
          <IsExploded>false</IsExploded>
        </Entry>
      </Table>
    </IdTable>'
    length unit = [m]
    processing part 'fluent' with ID 3
    processing named selection 'outlet'
    processing named selection 'inlet'
    processing named selection 'boi'
    processing named selection 'wall'
    processing named selection 'boi_cur_outer'
    processing named selection 'boi_cur_inner'
    processing data ...
    removing named collections of entities ...
    removing named collections of entities stopped, no named collections selected.
    analyzing feature edges ...
    detecting feature edges, feature angle = 40 [deg] ...
        Data information
            Meshing model
                Attributes:
                    'LengthUnit': '[mm]'
                Entity summary:
                    Collection: 6
                    Component : 2
                    Body      : 1
                    Shell     : 1
                    Face      : 406
                    Loop      : 436
                    Edge      : 1180
                    Vertex    : 746
                    Surface   : 406
                    Curve     : 1180
                Tessellation summary:
                    Face facets  : 6528
                    Edge segments: 3640
                Bounding box:
                    (-75.75, 0, -23.25) x (75.75000000000009, 1, 23.25)
                Assembly component hierarchy:
                    'D:\\Objects3D\\fluent\\fuelCell\\H2BIKE\\fluent\\anode.scdoc'
                      'fluent'
                NamedCollections:
                    'outlet'
                    'inlet'
                    'boi'
                    'wall'
                    'boi_cur_outer'
                    'boi_cur_inner'
    
    
    exporting FLTG data to file 'D:\\Objects3D\\fluent\\fuelCell\\H2BIKE\\fluent\\FM_DESKTOP-6MJKVPJ_18384\\out170297635518384.tgf' ...
    writing face-based mesh file 'D:\\Objects3D\\fluent\\fuelCell\\H2BIKE\\fluent\\FM_DESKTOP-6MJKVPJ_18384\\out170297635518384.tgf' ...
    ======== Exported Data ========
    Entity summary:
        Object       : 1
        Object region: 7
        Zone         : 21
    
    running conversion done.
    running ANSYS TGrid CADToTGridConverter done.
    ran ANSYS TGrid CADToTGridConverter in 3.976 [s]

Reading "D:\Objects3D\fluent\fuelCell\H2BIKE\fluent\FM_DESKTOP-6MJKVPJ_18384/out170297635518384.tgf"...
Reading "D:\Objects3D\fluent\fuelCell\H2BIKE\fluent\FM_DESKTOP-6MJKVPJ_18384/out170297635518384.tgf"...
nodes: 6412
edges: 3636
faces: 6528
cells: 0
reading 6412 storage data (id 1, type 41, double precision binary).
generating pointers...done.
extracting boundary entities...
 6412 boundary nodes.
 6528 boundary faces.
 7 boundary face zones.
done.

preparing mesh for display...done.
analyzing boundary connectivity...done.

---------------- Import of anode, consisting of one single part/object , complete. 
 
(cx-use-window-id 51)
(cx-set-camera-relative '(-53.2575 35.1394 -56.5722) '(0 0 0) '(-0.218332 -0.641899 -0.192639) 0 0)
(cx-use-window-id 51)
(cx-set-camera-relative '(-4.12672 0.0847588 -1.73343) '(0 0 0) '(-0.00354016 -0.0904459 0.0010699) 0 0)
(cx-use-window-id 51)
(cx-set-camera-relative '(0.578091 19.5998 0.202659) '(0 0 0) '(0.000573993 0.0113669 -0.000921667) 0 0)
(cx-use-window-id 51)
(cx-set-camera-relative '(-15.5479 -58.6543 129.869) '(0 0 0) '(0.248276 0.623828 0.0567108) 0 0)
(cx-use-window-id 51)
(cx-set-camera-relative '(28.747 -13.0306 5.94524) '(0 0 0) '(0.244406 0.266279 0.211551) 0 0)
(cx-use-window-id 51)
(cx-set-camera-relative '(12.4395 -85.0026 9.73681) '(0 0 0) '(0.26227 0.107162 0.602617) 0 0)
(cx-use-window-id 51)
zone id: 2, name: origin-fluent-fluent_region, type: geometry, count: 1188
(cx-use-window-id 51)
zone id: 5, name: origin-boi, type: geometry, count: 124
(cx-use-window-id 51)
(cx-set-camera-relative '(-6.90506 40.3209 -2.55062) '(0 0 0) '(-0.220087 -0.0727547 -0.54717) 0 0)
(cx-use-window-id 51)
zone not found.
(cx-use-window-id 51)
(cx-set-camera-relative '(18.7787 -4.37219 -9.30326) '(0 0 0) '(0.0420882 0.0258446 0.0491065) 0 0)

---------------- A local size of 0.1 was added to facesize_1
---- Warning--- The string 'boi' was detected in one of the selected zone names ( origin-boi ). Did you intend to create a Body Of Influence?
---- Warning--- The string 'boi' was detected in one of the selected zone names ( origin-boi_cur_inner ). Did you intend to create a Body Of Influence?
---- Warning--- The string 'boi' was detected in one of the selected zone names ( origin-boi_cur_outer ). Did you intend to create a Body Of Influence?
Writing "D:\Objects3D\fluent\fuelCell\H2BIKE\fluent\FM_DESKTOP-6MJKVPJ_18384\TaskObject3.msh.h5" ...
writing 1 node zones
writing 14 edge zones 
writing 7 face zones 
done.
---------------- The Global Max size was adjusted to 4 
    processing size functions/scoped sizing to create Size Field...

Writing "D:\Objects3D\fluent\fuelCell\H2BIKE\fluent\FM_DESKTOP-6MJKVPJ_18384\anode.sf"...
Writing "D:\Objects3D\fluent\fuelCell\H2BIKE\fluent\FM_DESKTOP-6MJKVPJ_18384\anode.sf"...
Done.


Importing one mesh object per program-controlled and one zone per body ...
    E:\\Ansys\\Ansys.Products.2022.R1.Win64\\Program Files\\ANSYS Inc\\v221\\commonfiles\\CPython\\3_7\\winx64\\Release\\python\\..\\Ansys\\TGrid\\CADReaders.py started by MelonJam on DESKTOP-6MJKVPJ winx64 on Tue Dec 19 17:00:45 2023
    using Python 3.7.11 (remotes/origin/b0b4eda9448d622fbb214539623a7f129f39e1f4-dirty:b0b4eda, Oct 18 20) [MSC v.1920 64 bit (AMD64)]
    
    using Ansys.Meshing.FieldMesher build Nov 30 2021 12:29:41 including TGLib build Nov 12 2019 13:13:16
    
    running ANSYS TGrid CADToTGridConverter ...
    setting up parameters ...
    setting up parameters done.
    running conversion ...
    converting 1 file(s) from Workbench to FLTG using output path 'D:\\Objects3D\\fluent\\fuelCell\\H2BIKE\\fluent\\FM_DESKTOP-6MJKVPJ_18384/out170297644518384.tgf'
    converting file 'anode.scdoc.pmdb' (1 of 1) from Workbench to FLTG using output path 'D:\\Objects3D\\fluent\\fuelCell\\H2BIKE\\fluent\\FM_DESKTOP-6MJKVPJ_18384'
    importing data ...
    importing meshing model from PartMgr from file 'D:\\Objects3D\\fluent\\fuelCell\\H2BIKE\\fluent\\FM_DESKTOP-6MJKVPJ_18384\\\\anode.scdoc.pmdb' ...
    setting enclosure and symmetry processing to False
    setting transfer named selections to True
    setting named selection prefixes to ''
    setting mixed import resolution type to 'SolidAndSurface'
    setting target application to 'FluentMeshing'
    initializing part manager from file ...
    processing assembly 'D:\\Objects3D\\fluent\\fuelCell\\H2BIKE\\fluent\\anode.scdoc' with ID 1 and reference key '<?xml version="1.0" encoding="utf-16"?>
    <IdTable xmlns:xsd="http://www.w3.org/2001/XMLSchema" xmlns:xsi="http://www.w3.org/2001/XMLSchema-instance">
      <Table>
        <Entry>
          <Text>&lt;SnippetV1 sctype="SpaceClaim.OccurrenceMoniker`1[[SpaceClaim.IEvaluation, Core]], Core"&gt;&lt;instanceMoniker sctype="SpaceClaim.BasicMoniker`1[[SpaceClaim.IInstance, Core]], Core" refId="7682bd9b-a830-48c0-9553-1f1ee0f80937:5" /&gt;&lt;originalMoniker sctype="SpaceClaim.BasicMoniker`1[[SpaceClaim.IEvaluation, Core]], Core" refId="7682bd9b-a830-48c0-9553-1f1ee0f80937:1" /&gt;&lt;/SnippetV1&gt;</Text>
          <Id>10000</Id>
          <IsExploded>false</IsExploded>
        </Entry>
      </Table>
    </IdTable>'
    length unit = [m]
    processing part 'fluent' with ID 3
    processing named selection 'outlet'
    processing named selection 'inlet'
    processing named selection 'boi'
    processing named selection 'wall'
    processing named selection 'boi_cur_outer'
    processing named selection 'boi_cur_inner'
    processing data ...
    loading size function background grid from file 'D:\\Objects3D\\fluent\\fuelCell\\H2BIKE\\fluent\\FM_DESKTOP-6MJKVPJ_18384\\\\anode.sf' ...
    reading size function background grid file 'D:\\Objects3D\\fluent\\fuelCell\\H2BIKE\\fluent\\FM_DESKTOP-6MJKVPJ_18384\\\\anode.sf' ...
     Read 252408 vertices
    initializing size function background grid done in 0.116 [s]
    tessellating 406 faces done in 2.599 [s]
    removing named collections of entities ...
    removing named collections of entities stopped, no named collections selected.
    analyzing feature edges ...
    detecting feature edges, feature angle = 40 [deg] ...
        Data information
            Meshing model
                Attributes:
                    'LengthUnit': '[mm]'
                Entity summary:
                    Collection: 6
                    Component : 2
                    Body      : 1
                    Shell     : 1
                    Face      : 406
                    Loop      : 436
                    Edge      : 1180
                    Vertex    : 746
                    Surface   : 406
                    Curve     : 1180
                Tessellation summary:
                    Face facets  : 264302
                    Edge segments: 47740
                Bounding box:
                    (-75.75, 0, -23.25) x (75.75, 1, 23.25)
                Assembly component hierarchy:
                    'D:\\Objects3D\\fluent\\fuelCell\\H2BIKE\\fluent\\anode.scdoc'
                      'fluent'
                NamedCollections:
                    'outlet'
                    'inlet'
                    'boi'
                    'wall'
                    'boi_cur_outer'
                    'boi_cur_inner'
    
    
    exporting FLTG data to file 'D:\\Objects3D\\fluent\\fuelCell\\H2BIKE\\fluent\\FM_DESKTOP-6MJKVPJ_18384\\out170297644518384.tgf' ...
    writing face-based mesh file 'D:\\Objects3D\\fluent\\fuelCell\\H2BIKE\\fluent\\FM_DESKTOP-6MJKVPJ_18384\\out170297644518384.tgf' ...
    ======== Exported Data ========
    Entity summary:
        Object       : 1
        Object region: 7
        Zone         : 21
    
    running conversion done.
    running ANSYS TGrid CADToTGridConverter done.
    ran ANSYS TGrid CADToTGridConverter in 3.293 [s]

Reading "D:\Objects3D\fluent\fuelCell\H2BIKE\fluent\FM_DESKTOP-6MJKVPJ_18384/out170297644518384.tgf"...
Reading "D:\Objects3D\fluent\fuelCell\H2BIKE\fluent\FM_DESKTOP-6MJKVPJ_18384/out170297644518384.tgf"...
nodes: 179383
edges: 47720
faces: 264302
cells: 0
reading 179383 storage data (id 1, type 41, double precision binary).
appending mesh...
done.
generating pointers...done.
extracting boundary entities...
 185795 boundary nodes.
 270830 boundary faces.
 14 boundary face zones.
done.

Reading "D:\Objects3D\fluent\fuelCell\H2BIKE\fluent\FM_DESKTOP-6MJKVPJ_18384\\anode.sf"...
Reading "D:\Objects3D\fluent\fuelCell\H2BIKE\fluent\FM_DESKTOP-6MJKVPJ_18384\\anode.sf"...
 Read 252408 vertices
0 faces marked.

    computing regions...done
Deleting import_curvature_0
Deleting import_proximity_0
    processing size functions/scoped sizing to create Size Field...

Writing "D:\Objects3D\fluent\fuelCell\H2BIKE\fluent\FM_DESKTOP-6MJKVPJ_18384\anode.sf"...
Writing "D:\Objects3D\fluent\fuelCell\H2BIKE\fluent\FM_DESKTOP-6MJKVPJ_18384\anode.sf"...
Done.


remeshing...


------------------------- --------------------- -------------------- ---------------- ----------
                     name skewed-cells (> 0.80)    averaged-skewness maximum-skewness face count
------------------------- --------------------- -------------------- ---------------- ----------
     fluent-fluent_region                   212          0.056149328       0.94494477     177444

------------------------- --------------------- -------------------- ---------------- ----------
                     name skewed-cells (> 0.80)    averaged-skewness maximum-skewness face count
------------------------- --------------------- -------------------- ---------------- ----------
     fluent-fluent_region                   212          0.056149328       0.94494477     177444


---------------- After Surface mesh, the model consists of 1 fluid/solid regions and 0 voids.

---------------- Surface Meshing of anode complete in  0.30 minutes, with a maximum skewness of  0.94. 

---- Warning--- To improve the quality, insert the 'Improve Surface Mesh' task

(cx-use-window-id 51)
(cx-set-camera-relative '(7.05483 -6.44203 3.8897) '(0 0 0) '(0.203761 0.0543361 0.198112) 0 0)
(cx-use-window-id 51)
(cx-set-camera-relative '(-11.7943 25.5348 -0.953926) '(0 0 0) '(-0.329091 -0.169825 -0.381704) 0 0)
Writing "D:\Objects3D\fluent\fuelCell\H2BIKE\fluent\FM_DESKTOP-6MJKVPJ_18384\TaskObject5.msh.h5" ...
writing 3 node zones
writing 28 edge zones 
writing 14 face zones 
done.---- Warning--- The model only have one object. Share Topology might not be needed
0 pair(s) found.

    computing regions...done
0 faces marked.
Deleting import_curvature_0
Deleting import_proximity_0
    processing size functions/scoped sizing to create Size Field...

Writing "D:\Objects3D\fluent\fuelCell\H2BIKE\fluent\FM_DESKTOP-6MJKVPJ_18384\fluent-fluent_region.sf"...
Writing "D:\Objects3D\fluent\fuelCell\H2BIKE\fluent\FM_DESKTOP-6MJKVPJ_18384\fluent-fluent_region.sf"...
Done.


remeshing...


------------------------- --------------------- -------------------- ---------------- ----------
                     name skewed-cells (> 0.80)    averaged-skewness maximum-skewness face count
------------------------- --------------------- -------------------- ---------------- ----------
     fluent-fluent_region                     0          0.053615423       0.61091575     177048

------------------------- --------------------- -------------------- ---------------- ----------
                     name skewed-cells (> 0.80)    averaged-skewness maximum-skewness face count
------------------------- --------------------- -------------------- ---------------- ----------
     fluent-fluent_region                     0          0.053615423       0.61091575     177048


---------------- Surface Quality improvement of fluent-fluent_region complete in :  0.02 minutes. The final maximum surface skewness is  0.61. 


---------------- Velocity-inlet zone type was automatically assigned to zones containing the string 'inlet'.

---------------- Pressure-outlet zone type was automatically assigned to zones containing the string 'outlet'.

---------------- After Surface mesh, the model consists of 1 fluid/solid regions and 0 voids.

---------------- Share Topology of fluent-fluent_region complete in  0.20 minutes with a maximum skewness of  0.61. 

(cx-use-window-id 51)
(cx-set-camera-relative '(9.43554 -19.219 5.23911) '(0 0 0) '(0.364639 0.269287 0.331669) 0 0)
(cx-use-window-id 51)
(cx-set-camera-relative '(0.512657 -1.97434 -0.114529) '(0 0 0) '(0.0789861 0.0169749 0.0681003) 0 0)
(cx-use-window-id 51)
(cx-set-camera-relative '(-0.58371 10.9972 -5.04334) '(0 0 0) '(-0.303319 -0.115332 -0.215489) 0 0)
(cx-use-window-id 51)
(cx-set-camera-relative '(-18.8163 25.9454 -15.6191) '(0 0 0) '(-0.325333 -0.344794 -0.180665) 0 0)
(cx-use-window-id 51)
(cx-set-camera-relative '(4.69186 -27.0061 23.7302) '(0 0 0) '(0.47152 0.435088 0.366908) 0 0)

---------------- Boundary Conditions Updated

---------------- Regions Updated

Created Scoped Prism: smooth-transition_1

---------------- Inflation control added to fluent-fluent_region
Writing "D:\Objects3D\fluent\fuelCell\H2BIKE\fluent\FM_DESKTOP-6MJKVPJ_18384\TaskObject11.msh.h5" ...
writing 11 node zones
writing 35 edge zones 
writing 14 face zones 
done.
    updating regions...
    done.
checking object "fluent-fluent_region"...
    skipping validating regions of mesh object "fluent-fluent_region"...done.
auto meshing object fluent-fluent_region...

processing scoped prisms...
    starting orientation...done.
    setting prism growth...done.
done.
Identifying Topology...

Generating Prisms...

Generating initial mesh...
.


Refining mesh...

Create polyhedra ...
.

.

.

.

.


Merging Domains...
done.

Quality Measure has been changed to Orthogonal Quality.
                     name       id cells (quality < 0.10)  minimum quality cell count
------------------------- -------- ---------------------- ---------------- ----------
     fluent-fluent_region    23841                     73       0.07501407     745056

                     name       id cells (quality < 0.10)  minimum quality cell count
------------------------- -------- ---------------------- ---------------- ----------
          Overall Summary     none                     73       0.07501407     745056

[Quality Measure : Orthogonal Quality]

---------------- 745056 cells were created in :  1.65 minutes

---------------- The mesh has a minimum Orthogonal Quality of:  0.08 

---------------- The volume meshing of fluent-fluent_region is complete.

(cx-use-window-id 51)
(cx-set-camera-relative '(-8.40527 15.9481 -7.16607) '(0 0 0) '(-0.315945 -0.38629 -0.487714) 0 0)
(cx-use-window-id 51)
(cx-set-camera-relative '(-15.4851 9.1477 -28.8181) '(0 0 0) '(-0.093994 -0.664764 -0.160297) 0 0)
(cx-gui-do cx-activate-item "Ribbon*Frame1*Frame2(Task Page)*Table1*Table3(Solution)*PushButton1(Switch to Solution)")
(cx-gui-do cx-activate-item "Question*OK")

Inhomogeneous process distribution on multiple machines.
Or processes per machine not an exact multiple of GPGPU's per machine.
Or not enough GPGPU's per machine.
GPGPU computing disabled.


unused zone boundary-node-25 removed
unused zone boundary-node-11645 removed
unused zone boundary-node-11647 removed
unused zone boundary-node-11649 removed
unused zone boundary-node-11651 removed
unused zone boundary-node-11653 removed
unused zone boundary-node-11655 removed
unused zone boundary-node-11657 removed
unused zone boundary-node-23810 removed
Note: Rank = 0: Process affinity not being set (6).
Note: Rank = 1: Process affinity not being set (6).
Note: Rank = 2: Process affinity not being set (6).
Note: Rank = 3: Process affinity not being set (6).
Note: Rank = 4: Process affinity not being set (6).
Note: Rank = 5: Process affinity not being set (6).
Note: Rank = 6: Process affinity not being set (6).
Note: Rank = 7: Process affinity not being set (6).

Transferring mesh
	creating threads... done
	transferring nodes... done
	transferring cells... done
	transferring faces... done
	post mesh transfer operations... done
done

Building...
     mesh
	auto partitioning mesh by Metis (fast),
	distributing mesh
		parts........,
		faces........,
		nodes........,
		cells........,
        bandwidth reduction using Reverse Cuthill-McKee: 93460/2769 = 33.7523
     materials,
     interface,
     domains,
     zones,
	interior--fluent-fluent_region
	boi_cur_outer
	boi
	boi_cur_inner
	wall
	s1
	inlet
	outlet
	fluent-fluent_region
     surfaces,
     parallel,
Done.
Mesh is now scaled to meters.

Preparing mesh for display...
Done.
(cx-gui-do cx-activate-tab-index "NavigationPane*Frame1(TreeTab)" 1)
(newline)


> (cx-use-window-id 51)
(cx-set-camera-relative '(0.0100889 -0.0490492 0.0249858) '(0 0 0) '(0.37581 0.278043 0.381426) 0 0)
(cx-use-window-id 51)
(cx-set-camera-relative '(-0.00945158 0.0063802 0.00298674) '(0 0 0) '(0.0304822 -0.0639058 -0.258971) 0 0)
(cx-gui-do cx-set-list-tree-selections "NavigationPane*Frame2*Table1*List_Tree2" (list "Setup|Materials|Fluid"))
(cx-gui-do cx-set-list-tree-selections "NavigationPane*Frame2*Table1*List_Tree2" (list "Setup|Materials|Fluid|air"))
(cx-gui-do cx-set-list-tree-selections "NavigationPane*Frame2*Table1*List_Tree2" (list "Setup|Materials|Fluid|air"))
(cx-gui-do cx-set-list-tree-selections "NavigationPane*Frame2*Table1*List_Tree2" (list "Setup|Materials|Fluid|air"))
(cx-gui-do cx-activate-item "NavigationPane*Frame2*Table1*List_Tree2")
(cx-gui-do cx-set-list-tree-selections "NavigationPane*Frame2*Table1*List_Tree2" (list "Setup|Materials|Fluid|air"))
(cx-gui-do cx-activate-item "Create/Edit Materials*Table1*Frame1*Frame2*ButtonBox2*PushButton1(Fluent Database)")
(cx-gui-do cx-set-list-selections "Fluent Database Materials*Table1*Frame1*List1(Materials)" '( 307))
(cx-gui-do cx-activate-item "Fluent Database Materials*Table1*Frame1*List1(Materials)")
(cx-gui-do cx-activate-item "Fluent Database Materials*PanelButtons*PushButton6(Copy)")
(cx-gui-do cx-activate-item "Fluent Database Materials*PanelButtons*PushButton1(Close)")
(cx-gui-do cx-set-list-tree-selections "NavigationPane*Frame2*Table1*List_Tree2" (list "Setup|Materials|Fluid|air"))
(cx-gui-do cx-activate-item "Create/Edit Materials*PanelButtons*PushButton1(Close)")
(cx-gui-do cx-set-list-tree-selections "NavigationPane*Frame2*Table1*List_Tree2" (list ))
(cx-gui-do cx-set-list-tree-selections "NavigationPane*Frame2*Table1*List_Tree2" (list "Setup|Materials|Fluid|air"))
(cx-gui-do cx-set-list-tree-selections "NavigationPane*Frame2*Table1*List_Tree2" (list "Setup|Materials|Fluid|air"))
(cx-gui-do cx-activate-item "NavigationPane*Frame2*Table1*List_Tree2")
(cx-gui-do cx-set-list-tree-selections "NavigationPane*Frame2*Table1*List_Tree2" (list "Setup|Materials|Fluid|air"))
(cx-gui-do cx-set-list-selections "Create/Edit Materials*Table1*Frame1*Table1*DropDownList4(Materials)" '( 1))
(cx-gui-do cx-activate-item "Create/Edit Materials*Table1*Frame1*Table1*DropDownList4(Materials)")
(cx-gui-do cx-activate-item "Create/Edit Materials*PanelButtons*PushButton3(Change/Create)")
(cx-gui-do cx-activate-item "Create/Edit Materials*PanelButtons*PushButton1(Close)")
(cx-gui-do cx-set-list-tree-selections "NavigationPane*Frame2*Table1*List_Tree2" (list ))
(cx-gui-do cx-set-list-tree-selections "NavigationPane*Frame2*Table1*List_Tree2" (list "Setup|Materials|Fluid|air"))
(cx-gui-do cx-set-list-tree-selections "NavigationPane*Frame2*Table1*List_Tree2" (list "Setup|Materials|Fluid|air"))
(cx-gui-do cx-activate-item "NavigationPane*Frame2*Table1*List_Tree2")
(cx-gui-do cx-set-list-tree-selections "NavigationPane*Frame2*Table1*List_Tree2" (list "Setup|Materials|Fluid|air"))
(cx-gui-do cx-set-list-selections "Create/Edit Materials*Table1*Frame1*Table1*DropDownList4(Materials)" '( 1))
(cx-gui-do cx-activate-item "Create/Edit Materials*Table1*Frame1*Table1*DropDownList4(Materials)")
(cx-gui-do cx-activate-item "Create/Edit Materials*PanelButtons*PushButton3(Change/Create)")
(cx-gui-do cx-activate-item "Create/Edit Materials*PanelButtons*PushButton4(Delete)")
(cx-gui-do cx-activate-item "Create/Edit Materials*PanelButtons*PushButton1(Close)")
(cx-gui-do cx-set-list-tree-selections "NavigationPane*Frame2*Table1*List_Tree2" (list "Setup|Materials|Fluid|air"))
(cx-gui-do cx-set-list-tree-selections "NavigationPane*Frame2*Table1*List_Tree2" (list "Setup|Materials|Fluid|air"))
(cx-gui-do cx-activate-item "NavigationPane*Frame2*Table1*List_Tree2")
(cx-gui-do cx-set-list-tree-selections "NavigationPane*Frame2*Table1*List_Tree2" (list "Setup|Materials|Fluid|air"))
(cx-gui-do cx-set-toggle-button2 "Create/Edit Materials*Table1*Frame1*Frame2*ToggleBox1(Order Materials by)*Chemical Formula" #t)
(cx-gui-do cx-activate-item "Create/Edit Materials*Table1*Frame1*Frame2*ToggleBox1(Order Materials by)*Chemical Formula")
(cx-gui-do cx-set-toggle-button2 "Create/Edit Materials*Table1*Frame1*Frame2*ToggleBox1(Order Materials by)*Name" #t)
(cx-gui-do cx-activate-item "Create/Edit Materials*Table1*Frame1*Frame2*ToggleBox1(Order Materials by)*Name")
(cx-gui-do cx-activate-item "Create/Edit Materials*Table1*Frame1*Frame2*ButtonBox2*PushButton1(Fluent Database)")
(cx-gui-do cx-activate-item "Fluent Database Materials*PanelButtons*PushButton6(Copy)")
(cx-gui-do cx-activate-item "Fluent Database Materials*PanelButtons*PushButton1(Close)")
(cx-gui-do cx-activate-item "Create/Edit Materials*PanelButtons*PushButton1(Close)")
(cx-gui-do cx-set-list-tree-selections "NavigationPane*Frame2*Table1*List_Tree2" (list "Setup|Materials|Fluid|air"))
(cx-gui-do cx-set-list-tree-selections "NavigationPane*Frame2*Table1*List_Tree2" (list "Setup|Materials|Fluid|air"))
(cx-gui-do cx-activate-item "NavigationPane*Frame2*Table1*List_Tree2")
(cx-gui-do cx-set-list-tree-selections "NavigationPane*Frame2*Table1*List_Tree2" (list "Setup|Materials|Fluid|air"))
(cx-gui-do cx-activate-item "Create/Edit Materials*PanelButtons*PushButton4(Delete)")

Error: delete-material: still in use by fluent-fluent_region.
Error Object: air
(cx-gui-do cx-activate-item "Error*Cancel")
(cx-gui-do cx-activate-item "Create/Edit Materials*PanelButtons*PushButton1(Close)")
(cx-gui-do cx-set-list-tree-selections "NavigationPane*Frame2*Table1*List_Tree2" (list "Setup|Materials|Fluid|hydrogen"))
(cx-gui-do cx-set-list-tree-selections "NavigationPane*Frame2*Table1*List_Tree2" (list "Setup|Materials|Fluid|hydrogen"))
(cx-gui-do cx-set-list-tree-selections "NavigationPane*Frame2*Table1*List_Tree2" (list "Setup|Materials|Fluid|hydrogen"))
(cx-gui-do cx-activate-item "NavigationPane*Frame2*Table1*List_Tree2")
(cx-gui-do cx-set-list-tree-selections "NavigationPane*Frame2*Table1*List_Tree2" (list "Setup|Materials|Fluid|hydrogen"))
(cx-gui-do cx-activate-item "Create/Edit Materials*PanelButtons*PushButton1(Close)")
(cx-gui-do cx-set-list-tree-selections "NavigationPane*Frame2*Table1*List_Tree2" (list "Setup|Materials|Fluid|air"))
(cx-gui-do cx-set-list-tree-selections "NavigationPane*Frame2*Table1*List_Tree2" (list "Setup|Materials|Fluid|air"))
(cx-gui-do cx-activate-item "NavigationPane*Frame2*Table1*List_Tree2")
(cx-gui-do cx-set-list-tree-selections "NavigationPane*Frame2*Table1*List_Tree2" (list "Setup|Materials|Fluid|air"))
(cx-gui-do cx-set-list-tree-selections "NavigationPane*Frame2*Table1*List_Tree2" (list "Setup|Materials|Fluid|hydrogen"))
(cx-gui-do cx-set-list-tree-selections "NavigationPane*Frame2*Table1*List_Tree2" (list "Setup|Materials|Fluid|hydrogen"))
(cx-gui-do cx-activate-item "NavigationPane*Frame2*Table1*List_Tree2")
(cx-gui-do cx-set-list-tree-selections "NavigationPane*Frame2*Table1*List_Tree2" (list "Setup|Materials|Fluid|hydrogen"))
(cx-gui-do cx-set-list-selections "Create/Edit Materials*Table1*Frame1*Table1*DropDownList4(Materials)" '( 0))
(cx-gui-do cx-activate-item "Create/Edit Materials*Table1*Frame1*Table1*DropDownList4(Materials)")
(cx-gui-do cx-set-list-selections "Create/Edit Materials*Table1*Frame1*Table1*DropDownList4(Materials)" '( 1))
(cx-gui-do cx-activate-item "Create/Edit Materials*Table1*Frame1*Table1*DropDownList4(Materials)")
(cx-gui-do cx-activate-item "Create/Edit Materials*PanelButtons*PushButton3(Change/Create)")
(cx-gui-do cx-set-list-selections "Create/Edit Materials*Table1*Frame1*Table1*DropDownList4(Materials)" '( 0))
(cx-gui-do cx-activate-item "Create/Edit Materials*Table1*Frame1*Table1*DropDownList4(Materials)")
(cx-gui-do cx-set-list-selections "Create/Edit Materials*Table1*Frame1*Table1*DropDownList4(Materials)" '( 1))
(cx-gui-do cx-activate-item "Create/Edit Materials*Table1*Frame1*Table1*DropDownList4(Materials)")
(cx-gui-do cx-set-list-selections "Create/Edit Materials*Table1*Frame1*Table1*DropDownList4(Materials)" '( 0))
(cx-gui-do cx-activate-item "Create/Edit Materials*Table1*Frame1*Table1*DropDownList4(Materials)")
(cx-gui-do cx-set-real-entry-list "Create/Edit Materials*RealEntry10" '( 0.08189))
(cx-gui-do cx-set-list-selections "Create/Edit Materials*Table1*Frame1*Table1*DropDownList4(Materials)" '( 1))
(cx-gui-do cx-activate-item "Create/Edit Materials*Table1*Frame1*Table1*DropDownList4(Materials)")
(cx-gui-do cx-set-list-selections "Create/Edit Materials*Table1*Frame1*Table1*DropDownList4(Materials)" '( 0))
(cx-gui-do cx-activate-item "Create/Edit Materials*Table1*Frame1*Table1*DropDownList4(Materials)")
(cx-gui-do cx-set-real-entry-list "Create/Edit Materials*RealEntry16" '( 8.411e-06))
(cx-gui-do cx-activate-item "Create/Edit Materials*PanelButtons*PushButton3(Change/Create)")
(cx-gui-do cx-activate-item "Create/Edit Materials*PanelButtons*PushButton1(Close)")
(cx-gui-do cx-set-list-tree-selections "NavigationPane*Frame2*Table1*List_Tree2" (list "Setup|Materials|Fluid|air"))
(cx-gui-do cx-set-list-tree-selections "NavigationPane*Frame2*Table1*List_Tree2" (list "Setup|Materials|Fluid|air"))
(cx-gui-do cx-activate-item "NavigationPane*Frame2*Table1*List_Tree2")
(cx-gui-do cx-set-list-tree-selections "NavigationPane*Frame2*Table1*List_Tree2" (list "Setup|Materials|Fluid|air"))
(cx-gui-do cx-set-list-selections "Create/Edit Materials*Table1*Frame1*Table1*DropDownList4(Materials)" '( 1))
(cx-gui-do cx-activate-item "Create/Edit Materials*Table1*Frame1*Table1*DropDownList4(Materials)")
(cx-gui-do cx-set-list-selections "Create/Edit Materials*Table1*Frame1*Table1*DropDownList4(Materials)" '( 0))
(cx-gui-do cx-activate-item "Create/Edit Materials*Table1*Frame1*Table1*DropDownList4(Materials)")
(cx-gui-do cx-set-list-selections "Create/Edit Materials*Table1*Frame1*Table1*DropDownList4(Materials)" '( 1))
(cx-gui-do cx-activate-item "Create/Edit Materials*Table1*Frame1*Table1*DropDownList4(Materials)")
(cx-gui-do cx-set-list-selections "Create/Edit Materials*Table1*Frame1*Table1*DropDownList4(Materials)" '( 0))
(cx-gui-do cx-activate-item "Create/Edit Materials*Table1*Frame1*Table1*DropDownList4(Materials)")
(cx-gui-do cx-set-real-entry-list "Create/Edit Materials*RealEntry10" '( 0.08189))
(cx-gui-do cx-activate-item "Create/Edit Materials*PanelButtons*PushButton3(Change/Create)")
(cx-gui-do cx-activate-item "Create/Edit Materials*PanelButtons*PushButton1(Close)")
(cx-gui-do cx-set-list-tree-selections "NavigationPane*Frame2*Table1*List_Tree2" (list "Setup|Materials|Fluid|air"))
(cx-gui-do cx-set-list-tree-selections "NavigationPane*Frame2*Table1*List_Tree2" (list "Setup|Materials|Fluid|air"))
(cx-gui-do cx-activate-item "NavigationPane*Frame2*Table1*List_Tree2")
(cx-gui-do cx-set-list-tree-selections "NavigationPane*Frame2*Table1*List_Tree2" (list "Setup|Materials|Fluid|air"))
(cx-gui-do cx-activate-item "Create/Edit Materials*PanelButtons*PushButton1(Close)")
(cx-gui-do cx-set-list-tree-selections "NavigationPane*Frame2*Table1*List_Tree2" (list "Setup|Boundary Conditions|Inlet"))
(cx-gui-do cx-set-list-tree-selections "NavigationPane*Frame2*Table1*List_Tree2" (list "Setup|Boundary Conditions|Inlet"))
(cx-gui-do cx-activate-item "NavigationPane*Frame2*Table1*List_Tree2")
(cx-gui-do cx-set-list-tree-selections "NavigationPane*Frame2*Table1*List_Tree2" (list "Setup|Boundary Conditions|Inlet"))
(cx-gui-do cx-activate-tab-index "Velocity Inlet*Frame2*Frame2" 0)
(cx-gui-do cx-activate-tab-index "Velocity Inlet*Frame2*Frame2" 1)
(cx-gui-do cx-activate-tab-index "Velocity Inlet*Frame2*Frame2" 0)
(cx-gui-do cx-activate-tab-index "Velocity Inlet*Frame2*Frame2" 2)
(cx-gui-do cx-activate-tab-index "Velocity Inlet*Frame2*Frame2" 0)
(cx-gui-do cx-activate-tab-index "Velocity Inlet*Frame2*Frame2" 3)
(cx-gui-do cx-activate-tab-index "Velocity Inlet*Frame2*Frame2" 0)
(cx-gui-do cx-activate-tab-index "Velocity Inlet*Frame2*Frame2" 4)
(cx-gui-do cx-activate-tab-index "Velocity Inlet*Frame2*Frame2" 0)
(cx-gui-do cx-activate-tab-index "Velocity Inlet*Frame2*Frame2" 5)
(cx-gui-do cx-activate-tab-index "Velocity Inlet*Frame2*Frame2" 0)
(cx-gui-do cx-activate-tab-index "Velocity Inlet*Frame2*Frame2" 6)
(cx-gui-do cx-activate-tab-index "Velocity Inlet*Frame2*Frame2" 0)
(cx-gui-do cx-activate-tab-index "Velocity Inlet*Frame2*Frame2" 7)
(cx-gui-do cx-activate-tab-index "Velocity Inlet*Frame2*Frame2" 0)
(cx-gui-do cx-activate-tab-index "Velocity Inlet*Frame2*Frame2" 8)
(cx-gui-do cx-activate-tab-index "Velocity Inlet*Frame2*Frame2" 0)
(cx-gui-do cx-enable-apply-button "Velocity Inlet")
(cx-gui-do cx-set-expression-entry "Velocity Inlet*Frame2*Frame2*Frame1(Momentum)*Table1*Table8*ExpressionEntry1(Velocity Magnitude)" '("2.5" . 0))
(cx-gui-do cx-activate-item "Velocity Inlet*PanelButtons*PushButton1(OK)")
(cx-gui-do cx-activate-item "Velocity Inlet*PanelButtons*PushButton2(Cancel)")
(cx-gui-do cx-set-list-tree-selections "NavigationPane*Frame2*Table1*List_Tree2" (list "Setup|Models|Viscous (SST k-omega)"))
(cx-gui-do cx-set-list-tree-selections "NavigationPane*Frame2*Table1*List_Tree2" (list "Setup|Models|Viscous (SST k-omega)"))
(cx-gui-do cx-activate-item "NavigationPane*Frame2*Table1*List_Tree2")
(cx-gui-do cx-set-list-tree-selections "NavigationPane*Frame2*Table1*List_Tree2" (list "Setup|Models|Viscous (SST k-omega)"))
(cx-gui-do cx-set-toggle-button2 "Viscous Model*Table1*ToggleBox1(Model)*Laminar" #t)
(cx-gui-do cx-activate-item "Viscous Model*Table1*ToggleBox1(Model)*Laminar")
(cx-gui-do cx-activate-item "Viscous Model*PanelButtons*PushButton1(OK)")
(cx-gui-do cx-set-list-tree-selections "NavigationPane*Frame2*Table1*List_Tree2" (list "Setup|Materials|Fluid|air"))
(cx-gui-do cx-set-list-tree-selections "NavigationPane*Frame2*Table1*List_Tree2" (list "Setup|Materials|Fluid|air"))
(cx-gui-do cx-activate-item "NavigationPane*Frame2*Table1*List_Tree2")
(cx-gui-do cx-set-list-tree-selections "NavigationPane*Frame2*Table1*List_Tree2" (list "Setup|Materials|Fluid|air"))
(cx-gui-do cx-activate-item "Create/Edit Materials*PanelButtons*PushButton1(Close)")
(cx-gui-do cx-set-list-tree-selections "NavigationPane*Frame2*Table1*List_Tree2" (list "Setup|Boundary Conditions|Inlet|inlet (velocity-inlet, id=42)"))
(cx-gui-do cx-set-list-tree-selections "NavigationPane*Frame2*Table1*List_Tree2" (list "Setup|Boundary Conditions|Inlet|inlet (velocity-inlet, id=42)"))
(cx-gui-do cx-activate-item "NavigationPane*Frame2*Table1*List_Tree2")
(cx-gui-do cx-set-list-tree-selections "NavigationPane*Frame2*Table1*List_Tree2" (list "Setup|Boundary Conditions|Inlet|inlet (velocity-inlet, id=42)"))
(cx-gui-do cx-activate-item "Velocity Inlet*PanelButtons*PushButton2(Cancel)")
(cx-gui-do cx-set-list-tree-selections "NavigationPane*Frame2*Table1*List_Tree2" (list "Setup|Boundary Conditions|Outlet|outlet (pressure-outlet, id=41)"))
(cx-gui-do cx-set-list-tree-selections "NavigationPane*Frame2*Table1*List_Tree2" (list "Setup|Boundary Conditions|Outlet|outlet (pressure-outlet, id=41)"))
(cx-gui-do cx-activate-item "NavigationPane*Frame2*Table1*List_Tree2")
(cx-gui-do cx-set-list-tree-selections "NavigationPane*Frame2*Table1*List_Tree2" (list "Setup|Boundary Conditions|Outlet|outlet (pressure-outlet, id=41)"))
(cx-gui-do cx-activate-tab-index "Pressure Outlet*Frame2*Frame2" 0)
(cx-gui-do cx-activate-tab-index "Pressure Outlet*Frame2*Frame2" 1)
(cx-gui-do cx-activate-tab-index "Pressure Outlet*Frame2*Frame2" 0)
(cx-gui-do cx-activate-tab-index "Pressure Outlet*Frame2*Frame2" 2)
(cx-gui-do cx-activate-tab-index "Pressure Outlet*Frame2*Frame2" 0)
(cx-gui-do cx-activate-tab-index "Pressure Outlet*Frame2*Frame2" 3)
(cx-gui-do cx-activate-tab-index "Pressure Outlet*Frame2*Frame2" 0)
(cx-gui-do cx-activate-tab-index "Pressure Outlet*Frame2*Frame2" 4)
(cx-gui-do cx-activate-tab-index "Pressure Outlet*Frame2*Frame2" 0)
(cx-gui-do cx-activate-tab-index "Pressure Outlet*Frame2*Frame2" 5)
(cx-gui-do cx-activate-tab-index "Pressure Outlet*Frame2*Frame2" 0)
(cx-gui-do cx-activate-tab-index "Pressure Outlet*Frame2*Frame2" 6)
(cx-gui-do cx-activate-tab-index "Pressure Outlet*Frame2*Frame2" 0)
(cx-gui-do cx-activate-tab-index "Pressure Outlet*Frame2*Frame2" 7)
(cx-gui-do cx-activate-tab-index "Pressure Outlet*Frame2*Frame2" 0)
(cx-gui-do cx-activate-tab-index "Pressure Outlet*Frame2*Frame2" 8)
(cx-gui-do cx-activate-tab-index "Pressure Outlet*Frame2*Frame2" 0)
(cx-gui-do cx-activate-item "Pressure Outlet*PanelButtons*PushButton2(Cancel)")
(cx-gui-do cx-activate-item "Ribbon*Frame1*Frame4(Physics)*Table1*Table3(Materials)*PushButton1(Create/Edit)")
(cx-gui-do cx-activate-item "Create/Edit Materials*PanelButtons*PushButton1(Close)")
(cx-gui-do cx-set-list-tree-selections "NavigationPane*Frame2*Table1*List_Tree2" (list "Setup|Materials"))
(cx-gui-do cx-set-list-tree-selections "NavigationPane*Frame2*Table1*List_Tree2" (list "Setup|Materials"))
(cx-gui-do cx-activate-item "NavigationPane*Frame2*Table1*List_Tree2")
(cx-gui-do cx-set-list-tree-selections "NavigationPane*Frame2*Table1*List_Tree2" (list "Setup|Materials"))
(cx-gui-do cx-activate-item "Materials*Table1*ButtonBox2*PushButton1(Create/Edit)")
(cx-gui-do cx-activate-item "Create/Edit Materials*Table1*Frame1*Frame2*ButtonBox2*PushButton3(User-Defined Database)")
(cx-gui-do cx-activate-item "Open Database*PanelButtons*PushButton2(Cancel)")
(cx-gui-do cx-set-list-tree-selections "NavigationPane*Frame2*Table1*List_Tree2" (list "Setup|Models|Multiphase (Off)"))
(cx-gui-do cx-set-list-tree-selections "NavigationPane*Frame2*Table1*List_Tree2" (list "Setup|Models|Multiphase (Off)"))
(cx-gui-do cx-activate-item "NavigationPane*Frame2*Table1*List_Tree2")
(cx-gui-do cx-set-list-tree-selections "NavigationPane*Frame2*Table1*List_Tree2" (list "Setup|Models|Multiphase (Off)"))
(cx-gui-do cx-activate-tab-index "Multiphase Model*Frame1" 0)
(cx-gui-do cx-activate-tab-index "Multiphase Model*Frame1" 1)
(cx-gui-do cx-activate-tab-index "Multiphase Model*Frame1" 0)
(cx-gui-do cx-activate-tab-index "Multiphase Model*Frame1" 2)
(cx-gui-do cx-activate-tab-index "Multiphase Model*Frame1" 0)
(cx-gui-do cx-activate-tab-index "Multiphase Model*Frame1" 3)
(cx-gui-do cx-activate-tab-index "Multiphase Model*Frame1" 0)
(cx-gui-do cx-set-toggle-button2 "Multiphase Model*Frame1*Frame1(Models)*Table1*Frame1*Table1*ToggleBox1(Model)*Wet Steam" #t)
(cx-gui-do cx-activate-item "Multiphase Model*Frame1*Frame1(Models)*Table1*Frame1*Table1*ToggleBox1(Model)*Wet Steam")
(cx-gui-do cx-activate-item "Multiphase Model*PanelButtons*PushButton1(OK)")


 ********************************************************
  The built-in saturated steam data are limited to the   
  temperature range of 273 K to 647 K. Therefore, the    
  minimum temperature should be set to 273 K.            
  If RGP table is used, limits for the temperature and   
  pressure should be set accordingly to the table range. 
  This can be done via the TUI or GUI:                   
  TUI: solve/set/limits                                  
  GUI: Solution->Limits...                               
 ********************************************************

Setting material properties to Wet-Steam...

Note: Enabling energy equation as required by material density method.
Warning: Velocity inlet boundary conditions are not appropriate for use
         with the Wet Steam model. Please change the boundary condition
         types used for this problem.

(cx-gui-do cx-activate-item "Create/Edit Materials*PanelButtons*PushButton1(Close)")
(cx-gui-do cx-set-toggle-button2 "Multiphase Model*Frame1*Frame1(Models)*Table1*Frame1*Table1*ToggleBox1(Model)*Mixture" #t)
(cx-gui-do cx-activate-item "Multiphase Model*Frame1*Frame1(Models)*Table1*Frame1*Table1*ToggleBox1(Model)*Mixture")
(cx-gui-do cx-activate-item "Multiphase Model*PanelButtons*PushButton1(OK)")

The Wet-Steam model is switched off.
Changing Discretization Scheme for Momentum to First Order Upwind
Changing Discretization Scheme for Energy to First Order Upwind

Adjusting the following settings:
Changing Discretization Scheme for Turbulent Kinetic Energy:   from: Second Order Upwind   to: First Order Upwind
Changing Discretization Scheme for Specific Dissipation Rate:  from: Second Order Upwind   to: First Order Upwind

Material air:
  New property "Standard State Enthalpy" has been added.
  Selecting constant method for "Standard State Enthalpy" -- data required.
Changing Discretization Scheme for Pressure to PRESTO!
(cx-gui-do cx-activate-tab-index "Multiphase Model*Frame1*Frame3(Phase Interaction)*Table1*Table1*Frame1*Frame2*Frame1" 0)
(cx-gui-do cx-activate-tab-index "Multiphase Model*Frame1*Frame3(Phase Interaction)*Table1*Table1*Frame1*Frame2*Frame1" 1)
(cx-gui-do cx-activate-tab-index "Multiphase Model*Frame1*Frame3(Phase Interaction)*Table1*Table1*Frame1*Frame2*Frame1" 0)
(cx-gui-do cx-activate-tab-index "Multiphase Model*Frame1*Frame3(Phase Interaction)*Table1*Table1*Frame1*Frame2*Frame1" 2)
(cx-gui-do cx-activate-tab-index "Multiphase Model*Frame1*Frame3(Phase Interaction)*Table1*Table1*Frame1*Frame2*Frame1" 0)
(cx-gui-do cx-activate-tab-index "Multiphase Model*Frame1*Frame3(Phase Interaction)*Table1*Table1*Frame1*Frame2*Frame1*Frame3(Heat, Mass, Reactions)" 0)
(cx-gui-do cx-activate-tab-index "Multiphase Model*Frame1*Frame3(Phase Interaction)*Table1*Table1*Frame1*Frame2*Frame1*Frame3(Heat, Mass, Reactions)" 1)
(cx-gui-do cx-activate-tab-index "Multiphase Model*Frame1*Frame3(Phase Interaction)*Table1*Table1*Frame1*Frame2*Frame1*Frame3(Heat, Mass, Reactions)" 0)
(cx-gui-do cx-activate-tab-index "Multiphase Model*Frame1*Frame3(Phase Interaction)*Table1*Table1*Frame1*Frame2*Frame1*Frame3(Heat, Mass, Reactions)" 2)
(cx-gui-do cx-activate-tab-index "Multiphase Model*Frame1*Frame3(Phase Interaction)*Table1*Table1*Frame1*Frame2*Frame1*Frame3(Heat, Mass, Reactions)" 0)
(cx-gui-do cx-activate-tab-index "Multiphase Model*Frame1*Frame3(Phase Interaction)*Table1*Table1*Frame1*Frame2*Frame1" 3)
(cx-gui-do cx-activate-tab-index "Multiphase Model*Frame1*Frame3(Phase Interaction)*Table1*Table1*Frame1*Frame2*Frame1" 0)
(cx-gui-do cx-activate-tab-index "Multiphase Model*Frame1*Frame3(Phase Interaction)*Table1*Table1*Frame1*Frame2*Frame1" 4)
(cx-gui-do cx-activate-tab-index "Multiphase Model*Frame1*Frame3(Phase Interaction)*Table1*Table1*Frame1*Frame2*Frame1" 0)
(cx-gui-do cx-activate-tab-index "Multiphase Model*Frame1*Frame3(Phase Interaction)*Table1*Table1*Frame1*Frame2*Frame1*Frame3(Heat, Mass, Reactions)" 0)
(cx-gui-do cx-activate-tab-index "Multiphase Model*Frame1*Frame3(Phase Interaction)*Table1*Table1*Frame1*Frame2*Frame1*Frame3(Heat, Mass, Reactions)" 0)
(cx-gui-do cx-activate-tab-index "Multiphase Model*Frame1*Frame3(Phase Interaction)*Table1*Table1*Frame1*Frame2*Frame1" 0)
(cx-gui-do cx-activate-tab-index "Multiphase Model*Frame1*Frame3(Phase Interaction)*Table1*Table1*Frame1*Frame2*Frame1*Frame3(Heat, Mass, Reactions)" 0)


Available material properties or methods have changed.
Please confirm the property values before continuing.

(cx-gui-do cx-activate-item "Information*OK")
(cx-gui-do cx-set-list-tree-selections "NavigationPane*Frame2*Table1*List_Tree2" (list "Setup|Models|Multiphase (Mixture)"))
(cx-gui-do cx-set-list-tree-selections "NavigationPane*Frame2*Table1*List_Tree2" (list "Setup|Materials|Fluid"))
(cx-gui-do cx-set-list-tree-selections "NavigationPane*Frame2*Table1*List_Tree2" (list "Setup|Materials|Fluid"))
(cx-gui-do cx-activate-item "NavigationPane*Frame2*Table1*List_Tree2")
(cx-gui-do cx-set-list-tree-selections "NavigationPane*Frame2*Table1*List_Tree2" (list "Setup|Materials|Fluid"))
(cx-gui-do cx-activate-item "Multiphase Model*PanelButtons*PushButton2(Cancel)")
(cx-gui-do cx-set-list-tree-selections "NavigationPane*Frame2*Table1*List_Tree2" (list "Setup|Materials|Fluid"))
(cx-gui-do cx-set-list-tree-selections "NavigationPane*Frame2*Table1*List_Tree2" (list "Setup|Materials|Fluid"))
(cx-gui-do cx-activate-item "NavigationPane*Frame2*Table1*List_Tree2")
(cx-gui-do cx-set-list-tree-selections "NavigationPane*Frame2*Table1*List_Tree2" (list "Setup|Materials|Fluid"))
(cx-gui-do cx-set-list-tree-selections "NavigationPane*Frame2*Table1*List_Tree2" (list "Setup|Materials|Fluid"))
(cx-gui-do cx-set-list-tree-selections "NavigationPane*Frame2*Table1*List_Tree2" (list "Setup|Materials|Fluid"))
(cx-gui-do cx-activate-item "NavigationPane*Frame2*Table1*List_Tree2")
(cx-gui-do cx-set-list-tree-selections "NavigationPane*Frame2*Table1*List_Tree2" (list "Setup|Materials|Fluid"))
(cx-gui-do cx-set-list-tree-selections "NavigationPane*Frame2*Table1*List_Tree2" (list "Setup|Materials|Fluid|hydrogen"))
(cx-gui-do cx-set-list-tree-selections "NavigationPane*Frame2*Table1*List_Tree2" (list "Setup|Materials|Fluid|hydrogen"))
(cx-gui-do cx-activate-item "NavigationPane*Frame2*Table1*List_Tree2")
(cx-gui-do cx-set-list-tree-selections "NavigationPane*Frame2*Table1*List_Tree2" (list "Setup|Materials|Fluid|hydrogen"))
(cx-gui-do cx-activate-item "Create/Edit Materials*PanelButtons*PushButton1(Close)")
(cx-gui-do cx-set-list-tree-selections "NavigationPane*Frame2*Table1*List_Tree2" (list "Setup|Models|Multiphase (Mixture)"))
(cx-gui-do cx-set-list-tree-selections "NavigationPane*Frame2*Table1*List_Tree2" (list "Setup|Models|Multiphase (Mixture)"))
(cx-gui-do cx-activate-item "NavigationPane*Frame2*Table1*List_Tree2")
(cx-gui-do cx-set-list-tree-selections "NavigationPane*Frame2*Table1*List_Tree2" (list "Setup|Models|Multiphase (Mixture)"))
(cx-gui-do cx-activate-tab-index "Multiphase Model*Frame1" 1)
(cx-gui-do cx-set-list-selections "Multiphase Model*Frame1*Frame2(Phases)*Table1*Frame1*Table1*Frame1(Phases)*List1" '( 1))
(cx-gui-do cx-activate-item "Multiphase Model*Frame1*Frame2(Phases)*Table1*Frame1*Table1*Frame1(Phases)*List1")
(cx-gui-do cx-set-list-selections "Multiphase Model*Frame1*Frame2(Phases)*Table1*Frame1*Table1*Frame1(Phases)*List1" '( 0))
(cx-gui-do cx-activate-item "Multiphase Model*Frame1*Frame2(Phases)*Table1*Frame1*Table1*Frame1(Phases)*List1")
(cx-gui-do cx-activate-tab-index "Multiphase Model*Frame1" 0)
(cx-gui-do cx-activate-tab-index "Multiphase Model*Frame1" 1)
(cx-gui-do cx-activate-item "Multiphase Model*Frame1*Frame2(Phases)*Table1*Frame1*Table1*Frame2(Phase Setup)*Frame1*Table2*Table1*PushButton2(Edit)")
(cx-gui-do cx-activate-item "Edit Material*PanelButtons*PushButton1(Close)")
(cx-gui-do cx-activate-tab-index "Multiphase Model*Frame1" 2)
(cx-gui-do cx-activate-tab-index "Multiphase Model*Frame1" 1)
(cx-gui-do cx-activate-tab-index "Multiphase Model*Frame1" 0)
(cx-gui-do cx-set-integer-entry "Multiphase Model*Frame1*Frame1(Models)*Table1*Frame1*Table1*Table2*IntegerEntry1(Number of Eulerian Phases)" 3)
(cx-gui-do cx-activate-item "Multiphase Model*Frame1*Frame1(Models)*Table1*Frame1*Table1*Table2*IntegerEntry1(Number of Eulerian Phases)")
(cx-gui-do cx-set-integer-entry "Multiphase Model*Frame1*Frame1(Models)*Table1*Frame1*Table1*Table2*IntegerEntry1(Number of Eulerian Phases)" 2)
(cx-gui-do cx-activate-item "Multiphase Model*Frame1*Frame1(Models)*Table1*Frame1*Table1*Table2*IntegerEntry1(Number of Eulerian Phases)")
(cx-gui-do cx-set-toggle-button2 "Multiphase Model*Frame1*Frame1(Models)*Table1*Frame1*Table1*ToggleBox1(Model)*Off" #t)
(cx-gui-do cx-activate-item "Multiphase Model*Frame1*Frame1(Models)*Table1*Frame1*Table1*ToggleBox1(Model)*Off")
(cx-gui-do cx-activate-item "Multiphase Model*PanelButtons*PushButton1(OK)")

Adjusting the following settings:
Changing Discretization Scheme for Specific Dissipation Rate:  from: First Order Upwind   to: Second Order Upwind
Changing Discretization Scheme for Turbulent Kinetic Energy:   from: First Order Upwind   to: Second Order Upwind
(cx-gui-do cx-activate-item "Multiphase Model*PanelButtons*PushButton2(Cancel)")
(cx-gui-do cx-set-list-tree-selections "NavigationPane*Frame2*Table1*List_Tree2" (list "Setup|Models|Energy (On)"))
(cx-gui-do cx-set-list-tree-selections "NavigationPane*Frame2*Table1*List_Tree2" (list "Setup|Models|Energy (On)"))
(cx-gui-do cx-activate-item "NavigationPane*Frame2*Table1*List_Tree2")
(cx-gui-do cx-set-list-tree-selections "NavigationPane*Frame2*Table1*List_Tree2" (list "Setup|Models|Energy (On)"))
(cx-gui-do cx-activate-item "Energy*PanelButtons*PushButton2(Cancel)")
(cx-gui-do cx-set-list-tree-selections "NavigationPane*Frame2*Table1*List_Tree2" (list "Setup|Materials|Fluid"))
(cx-gui-do cx-set-list-tree-selections "NavigationPane*Frame2*Table1*List_Tree2" (list "Setup|Materials|Fluid"))
(cx-gui-do cx-activate-item "NavigationPane*Frame2*Table1*List_Tree2")
(cx-gui-do cx-set-list-tree-selections "NavigationPane*Frame2*Table1*List_Tree2" (list "Setup|Materials|Fluid"))
(cx-gui-do cx-set-list-tree-selections "NavigationPane*Frame2*Table1*List_Tree2" (list "Setup|Materials|Fluid"))
(cx-gui-do cx-set-list-tree-selections "NavigationPane*Frame2*Table1*List_Tree2" (list "Setup|Materials|Fluid"))
(cx-gui-do cx-activate-item "NavigationPane*Frame2*Table1*List_Tree2")
(cx-gui-do cx-set-list-tree-selections "NavigationPane*Frame2*Table1*List_Tree2" (list "Setup|Materials|Fluid"))
(cx-gui-do cx-set-list-tree-selections "NavigationPane*Frame2*Table1*List_Tree2" (list "Setup|Boundary Conditions|Wall"))
(cx-gui-do cx-set-list-tree-selections "NavigationPane*Frame2*Table1*List_Tree2" (list "Setup|Boundary Conditions|Internal|interior--fluent-fluent_region (interior, id=23840)"))
(cx-gui-do cx-set-list-tree-selections "NavigationPane*Frame2*Table1*List_Tree2" (list "Setup|Boundary Conditions|Internal|interior--fluent-fluent_region (interior, id=23840)"))
(cx-gui-do cx-activate-item "NavigationPane*Frame2*Table1*List_Tree2")
(cx-gui-do cx-set-list-tree-selections "NavigationPane*Frame2*Table1*List_Tree2" (list "Setup|Boundary Conditions|Internal|interior--fluent-fluent_region (interior, id=23840)"))
(cx-gui-do cx-activate-item "Interior*PanelButtons*PushButton2(Cancel)")
(cx-gui-do cx-set-list-tree-selections "NavigationPane*Frame2*Table1*List_Tree2" (list "Setup|Models|Energy (On)"))
(cx-gui-do cx-set-list-tree-selections "NavigationPane*Frame2*Table1*List_Tree2" (list "Setup|Models|Energy (On)"))
(cx-gui-do cx-activate-item "NavigationPane*Frame2*Table1*List_Tree2")
(cx-gui-do cx-set-list-tree-selections "NavigationPane*Frame2*Table1*List_Tree2" (list "Setup|Models|Energy (On)"))
(cx-gui-do cx-activate-item "Energy*PanelButtons*PushButton2(Cancel)")
(cx-gui-do cx-set-list-tree-selections "NavigationPane*Frame2*Table1*List_Tree2" (list "Setup|Models|Species (Off)"))
(cx-gui-do cx-set-list-tree-selections "NavigationPane*Frame2*Table1*List_Tree2" (list "Setup|Models|Species (Off)"))
(cx-gui-do cx-activate-item "NavigationPane*Frame2*Table1*List_Tree2")
(cx-gui-do cx-set-list-tree-selections "NavigationPane*Frame2*Table1*List_Tree2" (list "Setup|Models|Species (Off)"))
(cx-gui-do cx-activate-tab-index "Species Model*Table2*Frame3" 0)
(cx-gui-do cx-activate-tab-index "Species Model*Table2*Frame3" 1)
(cx-gui-do cx-activate-tab-index "Species Model*Table2*Frame3" 0)
(cx-gui-do cx-activate-tab-index "Species Model*Table2*Frame3" 2)
(cx-gui-do cx-activate-tab-index "Species Model*Table2*Frame3" 0)
(cx-gui-do cx-activate-tab-index "Species Model*Table2*Frame4(PDF Table Creation)" 0)
(cx-gui-do cx-activate-tab-index "Species Model*Table2*Frame4(PDF Table Creation)" 1)
(cx-gui-do cx-activate-tab-index "Species Model*Table2*Frame4(PDF Table Creation)" 0)
(cx-gui-do cx-activate-tab-index "Species Model*Table2*Frame4(PDF Table Creation)" 2)
(cx-gui-do cx-activate-tab-index "Species Model*Table2*Frame4(PDF Table Creation)" 0)
(cx-gui-do cx-activate-tab-index "Species Model*Table2*Frame4(PDF Table Creation)" 3)
(cx-gui-do cx-activate-tab-index "Species Model*Table2*Frame4(PDF Table Creation)" 0)
(cx-gui-do cx-activate-tab-index "Species Model*Table2*Frame4(PDF Table Creation)" 4)
(cx-gui-do cx-activate-tab-index "Species Model*Table2*Frame4(PDF Table Creation)" 0)
(cx-gui-do cx-activate-tab-index "Species Model*Table2*Frame4(PDF Table Creation)" 5)
(cx-gui-do cx-activate-tab-index "Species Model*Table2*Frame4(PDF Table Creation)" 0)
(cx-gui-do cx-activate-tab-index "Species Model*Table2*Frame4(PDF Table Creation)" 6)
(cx-gui-do cx-activate-tab-index "Species Model*Table2*Frame4(PDF Table Creation)" 0)
(cx-gui-do cx-set-toggle-button2 "Species Model*Table1*ToggleBox1(Model)*Species Transport" #t)
(cx-gui-do cx-activate-item "Species Model*Table1*ToggleBox1(Model)*Species Transport")
(cx-gui-do cx-activate-item "Species Model*PanelButtons*PushButton1(OK)")

Adjusting the following setting:
Density explicit underrelaxation factor: from:     1   to:  0.25
(cx-gui-do cx-set-list-selections "Materials*Table1*List1(Materials)" '( 1))
(cx-gui-do cx-activate-item "Materials*Table1*List1(Materials)")
(cx-gui-do cx-activate-item "Materials*Table1*ButtonBox2*PushButton1(Create/Edit)")
(cx-gui-do cx-activate-item "Create/Edit Materials*PushButton3(Edit)")
(cx-gui-do cx-set-list-selections "Species*Table2*List1(Available Materials)" '( 0))
(cx-gui-do cx-activate-item "Species*Table2*List1(Available Materials)")
(cx-gui-do cx-activate-item "Species*PanelButtons*PushButton1(OK)")
(cx-gui-do cx-activate-item "Create/Edit Materials*PushButton3(Edit)")
(cx-gui-do cx-set-list-selections "Species*Table2*List1(Available Materials)" '( 0))
(cx-gui-do cx-activate-item "Species*Table2*List1(Available Materials)")
(cx-gui-do cx-activate-item "Species*PanelButtons*PushButton2(Cancel)")
(cx-gui-do cx-set-text-entry "Create/Edit Materials*Table1*Frame1*Table1*TextEntry1(Name)" "wet-air")
(cx-gui-do cx-activate-item "Create/Edit Materials*Table1*Frame1*Table1*TextEntry1(Name)")
(cx-gui-do cx-activate-item "Create/Edit Materials*PushButton3(Edit)")
(cx-gui-do cx-set-list-selections "Species*Table2*Frame2*List1(Selected Species)" '( 2))
(cx-gui-do cx-activate-item "Species*Table2*Frame2*List1(Selected Species)")
(cx-gui-do cx-set-list-selections "Species*Table2*Frame2*List1(Selected Species)" '( 0))
(cx-gui-do cx-activate-item "Species*Table2*Frame2*List1(Selected Species)")
(cx-gui-do cx-activate-item "Species*Table2*Frame2*ButtonBox2*PushButton2(Remove)")
(cx-gui-do cx-activate-item "Question*OK")
(cx-gui-do cx-set-list-selections "Species*Table2*List1(Available Materials)" '( 2))
(cx-gui-do cx-activate-item "Species*Table2*List1(Available Materials)")
(cx-gui-do cx-activate-item "Species*Table2*Frame2*ButtonBox2*PushButton1(Add)")
(cx-gui-do cx-set-list-selections "Species*Table2*Frame2*List1(Selected Species)" '( 2))
(cx-gui-do cx-activate-item "Species*Table2*Frame2*List1(Selected Species)")
(cx-gui-do cx-set-list-selections "Species*Table2*Frame2*List1(Selected Species)" '( 1))
(cx-gui-do cx-activate-item "Species*Table2*Frame2*List1(Selected Species)")
(cx-gui-do cx-set-list-selections "Species*Table2*Frame2*List1(Selected Species)" '( 0))
(cx-gui-do cx-activate-item "Species*Table2*Frame2*List1(Selected Species)")
(cx-gui-do cx-activate-item "Species*PanelButtons*PushButton1(OK)")
(cx-gui-do cx-activate-item "Create/Edit Materials*PushButton3(Edit)")
(cx-gui-do cx-set-list-selections "Species*Table2*Frame2*List1(Selected Species)" '( 1))
(cx-gui-do cx-activate-item "Species*Table2*Frame2*List1(Selected Species)")
(cx-gui-do cx-activate-item "Species*Table2*Frame2*ButtonBox2*PushButton2(Remove)")
(cx-gui-do cx-set-list-selections "Species*Table2*Frame2*List1(Selected Species)" '( 0))
(cx-gui-do cx-activate-item "Species*Table2*Frame2*List1(Selected Species)")
(cx-gui-do cx-activate-item "Species*Table2*Frame2*ButtonBox2*PushButton2(Remove)")
(cx-gui-do cx-set-list-selections "Species*Table2*List1(Available Materials)" '( 0))
(cx-gui-do cx-activate-item "Species*Table2*List1(Available Materials)")
(cx-gui-do cx-activate-item "Species*Table2*Frame2*ButtonBox2*PushButton1(Add)")
(cx-gui-do cx-activate-item "Species*PanelButtons*PushButton1(OK)")
(cx-gui-do cx-activate-item "Create/Edit Materials*PanelButtons*PushButton1(Close)")
(cx-gui-do cx-set-list-tree-selections "NavigationPane*Frame2*Table1*List_Tree2" (list "Setup|Models|Species (Species Transport)"))
(cx-gui-do cx-set-list-tree-selections "NavigationPane*Frame2*Table1*List_Tree2" (list "Setup|Boundary Conditions|Inlet"))
(cx-gui-do cx-set-list-tree-selections "NavigationPane*Frame2*Table1*List_Tree2" (list "Setup|Boundary Conditions|Inlet"))
(cx-gui-do cx-activate-item "NavigationPane*Frame2*Table1*List_Tree2")
(cx-gui-do cx-set-list-tree-selections "NavigationPane*Frame2*Table1*List_Tree2" (list "Setup|Boundary Conditions|Inlet"))
(cx-gui-do cx-activate-tab-index "Velocity Inlet*Frame2*Frame2" 3)
(cx-gui-do cx-activate-tab-index "Velocity Inlet*Frame2*Frame2" 1)
(cx-gui-do cx-activate-tab-index "Velocity Inlet*Frame2*Frame2" 0)
(cx-gui-do cx-activate-tab-index "Velocity Inlet*Frame2*Frame2" 3)
(cx-gui-do cx-activate-item "Velocity Inlet*PanelButtons*PushButton1(OK)")
(cx-gui-do cx-activate-item "Velocity Inlet*PanelButtons*PushButton2(Cancel)")
(cx-gui-do cx-set-list-tree-selections "NavigationPane*Frame2*Table1*List_Tree2" (list "Setup|Boundary Conditions|Inlet|inlet (velocity-inlet, id=42)"))
(cx-gui-do cx-set-list-tree-selections "NavigationPane*Frame2*Table1*List_Tree2" (list "Setup|Boundary Conditions|Inlet|inlet (velocity-inlet, id=42)"))
(cx-gui-do cx-activate-item "NavigationPane*Frame2*Table1*List_Tree2")
(cx-gui-do cx-set-list-tree-selections "NavigationPane*Frame2*Table1*List_Tree2" (list "Setup|Boundary Conditions|Inlet|inlet (velocity-inlet, id=42)"))
(cx-gui-do cx-activate-item "Velocity Inlet*PanelButtons*PushButton2(Cancel)")
(cx-gui-do cx-set-list-tree-selections "NavigationPane*Frame2*Table1*List_Tree2" (list "Setup|Named Expressions"))
(cx-gui-do cx-set-list-tree-selections "NavigationPane*Frame2*Table1*List_Tree2" (list "Solution|Initialization"))
(cx-gui-do cx-set-list-tree-selections "NavigationPane*Frame2*Table1*List_Tree2" (list "Solution|Initialization"))
(cx-gui-do cx-activate-item "NavigationPane*Frame2*Table1*List_Tree2")
(cx-gui-do cx-set-list-tree-selections "NavigationPane*Frame2*Table1*List_Tree2" (list "Solution|Initialization"))
(cx-gui-do cx-set-toggle-button2 "Solution Initialization*Table1*ToggleBox3(Initialization Methods)*Hybrid  Initialization" #t)
(cx-gui-do cx-activate-item "Solution Initialization*Table1*ToggleBox3(Initialization Methods)*Hybrid  Initialization")
(cx-gui-do cx-set-toggle-button2 "Solution Initialization*Table1*ToggleBox3(Initialization Methods)*Standard Initialization" #t)
(cx-gui-do cx-activate-item "Solution Initialization*Table1*ToggleBox3(Initialization Methods)*Standard Initialization")
(cx-gui-do cx-set-toggle-button2 "Solution Initialization*Table1*ToggleBox3(Initialization Methods)*Hybrid  Initialization" #t)
(cx-gui-do cx-activate-item "Solution Initialization*Table1*ToggleBox3(Initialization Methods)*Hybrid  Initialization")
(cx-gui-do cx-activate-item "Solution Initialization*Table1*Frame12*PushButton2(Initialize)")

Initialize using the hybrid initialization method.

Checking case topology... 
-This case has both inlets & outlets 
-Pressure information is not available at the boundaries.
 Case will be initialized with constant pressure

	iter		scalar-0

	1		1.000000e+00
	2		4.471354e-05
	3		1.108356e-05
	4		1.020068e-05
	5		6.775934e-06
	6		4.757132e-06
	7		3.815010e-06
	8		3.060887e-06
	9		2.460605e-06
	10		1.887868e-06

Hybrid initialization is done.

Warning: convergence tolerance of 1.000000e-06 not reached
during Hybrid Initialization.

Note: Settings to improve the robustness of pathline and
      particle tracking have been automatically enabled.

(cx-gui-do cx-set-list-tree-selections "NavigationPane*Frame2*Table1*List_Tree2" (list "Setup|Boundary Conditions|Inlet|inlet (velocity-inlet, id=42)"))
(cx-gui-do cx-set-list-tree-selections "NavigationPane*Frame2*Table1*List_Tree2" (list "Setup|Boundary Conditions|Inlet|inlet (velocity-inlet, id=42)"))
(cx-gui-do cx-activate-item "NavigationPane*Frame2*Table1*List_Tree2")
(cx-gui-do cx-set-list-tree-selections "NavigationPane*Frame2*Table1*List_Tree2" (list "Setup|Boundary Conditions|Inlet|inlet (velocity-inlet, id=42)"))
(cx-gui-do cx-activate-tab-index "Velocity Inlet*Frame2*Frame2" 1)
(cx-gui-do cx-activate-tab-index "Velocity Inlet*Frame2*Frame2" 0)
(cx-gui-do cx-activate-tab-index "Velocity Inlet*Frame2*Frame2" 3)
(cx-gui-do cx-activate-item "Velocity Inlet*PanelButtons*PushButton2(Cancel)")
(cx-gui-do cx-set-list-tree-selections "NavigationPane*Frame2*Table1*List_Tree2" (list "Solution|Run Calculation"))
(cx-gui-do cx-set-list-tree-selections "NavigationPane*Frame2*Table1*List_Tree2" (list "Solution|Run Calculation"))
(cx-gui-do cx-activate-item "NavigationPane*Frame2*Table1*List_Tree2")
(cx-gui-do cx-set-list-tree-selections "NavigationPane*Frame2*Table1*List_Tree2" (list "Solution|Run Calculation"))
(cx-gui-do cx-set-list-tree-selections "NavigationPane*Frame2*Table1*List_Tree2" (list "Solution|Report Definitions"))
(cx-gui-do cx-list-tree-right-click "NavigationPane*Frame2*Table1*List_Tree2" )
(cx-gui-do cx-activate-item "MenuBar*PopupMenuTree-Report Definitions*Edit...")
(cx-gui-do cx-activate-item "Report Definitions*Table1*ButtonBox3*PushButton1(New)")
(cx-gui-do cx-activate-item "MenuBar*Surface ReportSubMenu*Area-Weighted Average...")
(cx-gui-do cx-set-list-selections "Surface Report Definition*Table1*Table2*Table6*List1(Surfaces)" '( 5))
(cx-gui-do cx-activate-item "Surface Report Definition*Table1*Table2*Table6*List1(Surfaces)")
(cx-gui-do cx-set-list-selections "Surface Report Definition*Table1*Table2*Table6*List1(Surfaces)" '())
(cx-gui-do cx-activate-item "Surface Report Definition*Table1*Table2*Table6*List1(Surfaces)")
(cx-gui-do cx-set-list-selections "Surface Report Definition*Table1*Table2*Table6*List1(Surfaces)" '( 4))
(cx-gui-do cx-activate-item "Surface Report Definition*Table1*Table2*Table6*List1(Surfaces)")
(cx-use-window-id 51)
(cx-set-camera-relative '(-0.00802387 -0.13821 0.00307924) '(0 0 0) '(0.228356 0.0033468 0.733938) 0 0)
(cx-gui-do cx-set-list-selections "Surface Report Definition*Table1*Table2*Table6*List1(Surfaces)" '( 3 4))
(cx-gui-do cx-activate-item "Surface Report Definition*Table1*Table2*Table6*List1(Surfaces)")
(cx-gui-do cx-set-list-selections "Surface Report Definition*Table1*Table2*Table6*List1(Surfaces)" '( 2 3 4))
(cx-gui-do cx-activate-item "Surface Report Definition*Table1*Table2*Table6*List1(Surfaces)")
(cx-gui-do cx-set-list-selections "Surface Report Definition*Table1*Table2*Table6*List1(Surfaces)" '( 1 2 3 4))
(cx-gui-do cx-activate-item "Surface Report Definition*Table1*Table2*Table6*List1(Surfaces)")
(cx-gui-do cx-set-list-selections "Surface Report Definition*Table1*Table2*Table6*List1(Surfaces)" '( 0 1 2 3 4))
(cx-gui-do cx-activate-item "Surface Report Definition*Table1*Table2*Table6*List1(Surfaces)")
(cx-gui-do cx-set-list-selections "Surface Report Definition*Table1*Table2*Table6*List1(Surfaces)" '( 0 1 2 3 4 5))
(cx-gui-do cx-activate-item "Surface Report Definition*Table1*Table2*Table6*List1(Surfaces)")
(cx-gui-do cx-set-list-selections "Surface Report Definition*Table1*Table2*Table6*List1(Surfaces)" '( 0 1 2 3 4 5 6))
(cx-gui-do cx-activate-item "Surface Report Definition*Table1*Table2*Table6*List1(Surfaces)")
(cx-gui-do cx-set-list-selections "Surface Report Definition*Table1*Table2*Table6*List1(Surfaces)" '( 0 1 2 3 5 6))
(cx-gui-do cx-activate-item "Surface Report Definition*Table1*Table2*Table6*List1(Surfaces)")
(cx-gui-do cx-set-list-selections "Surface Report Definition*Table1*Table2*Table6*List1(Surfaces)" '( 0 1 2 3 4 5 6))
(cx-gui-do cx-activate-item "Surface Report Definition*Table1*Table2*Table6*List1(Surfaces)")
(cx-gui-do cx-set-list-selections "Surface Report Definition*Table1*Table2*Table6*List1(Surfaces)" '( 0 1 2 4 5 6))
(cx-gui-do cx-activate-item "Surface Report Definition*Table1*Table2*Table6*List1(Surfaces)")
(cx-gui-do cx-set-list-selections "Surface Report Definition*Table1*Table2*Table6*List1(Surfaces)" '( 0 1 2 5 6))
(cx-gui-do cx-activate-item "Surface Report Definition*Table1*Table2*Table6*List1(Surfaces)")
(cx-gui-do cx-set-list-selections "Surface Report Definition*Table1*Table2*Table6*List1(Surfaces)" '( 0 1 2 4 5 6))
(cx-gui-do cx-activate-item "Surface Report Definition*Table1*Table2*Table6*List1(Surfaces)")
(cx-gui-do cx-set-list-selections "Surface Report Definition*Table1*Table2*Table6*List1(Surfaces)" '( 0 1 4 5 6))
(cx-gui-do cx-activate-item "Surface Report Definition*Table1*Table2*Table6*List1(Surfaces)")
(cx-gui-do cx-set-list-selections "Surface Report Definition*Table1*Table2*Table6*List1(Surfaces)" '( 0 4 5 6))
(cx-gui-do cx-activate-item "Surface Report Definition*Table1*Table2*Table6*List1(Surfaces)")
(cx-gui-do cx-set-list-selections "Surface Report Definition*Table1*Table2*Table6*List1(Surfaces)" '( 4 5 6))
(cx-gui-do cx-activate-item "Surface Report Definition*Table1*Table2*Table6*List1(Surfaces)")
(cx-gui-do cx-set-list-selections "Surface Report Definition*Table1*Table2*Table6*List1(Surfaces)" '( 4 6))
(cx-gui-do cx-activate-item "Surface Report Definition*Table1*Table2*Table6*List1(Surfaces)")
(cx-gui-do cx-set-list-selections "Surface Report Definition*Table1*Table2*Table6*List1(Surfaces)" '( 4))
(cx-gui-do cx-activate-item "Surface Report Definition*Table1*Table2*Table6*List1(Surfaces)")
(cx-gui-do cx-activate-item "Surface Report Definition*PanelButtons*PushButton1(OK)")
(cx-gui-do cx-activate-item "Report Definitions*Table1*ButtonBox3*PushButton1(New)")
(cx-gui-do cx-activate-item "Report Definitions*PanelButtons*PushButton1(Close)")
(cx-gui-do cx-set-integer-entry "Run Calculation*Table1*Table3(Parameters)*Table1*Table1*IntegerEntry1(Number of Iterations)" 150)
(cx-gui-do cx-activate-item "Run Calculation*Table1*Table3(Parameters)*Table1*Table1*IntegerEntry1(Number of Iterations)")
(cx-gui-do cx-activate-item "Run Calculation*Table1*Table6(Solution Advancement)*Table1*PushButton1(Calculate)")

(cx-gui-do cx-activate-item "Question*OK")
Creating new file D:\Objects3D\fluent\fuelCell\H2BIKE\fluent\.\\report-def-0-rfile_8_1.out

  iter  continuity  x-velocity  y-velocity  z-velocity      energy         h2o     time/iter
     1  1.0000e+00  1.4605e-02  1.2025e-03  2.4953e-03  0.0000e+00  0.0000e+00  0:04:58  149

 Reversed flow on 397 faces (57.1% area) of pressure-outlet 41.
     2  6.4490e-01  1.4165e-02  1.3870e-03  2.4059e-03  0.0000e+00  0.0000e+00  0:05:55  148

 Reversed flow on 848 faces (57.1% area) of pressure-outlet 41.
     3  4.0553e-01  1.2454e-02  1.5010e-03  2.3181e-03  0.0000e+00  0.0000e+00  0:05:41  147

 Reversed flow on 993 faces (39.8% area) of pressure-outlet 41.
     4  2.5690e-01  9.3431e-03  1.3884e-03  1.9584e-03  0.0000e+00  0.0000e+00  0:08:25  146

 Reversed flow on 771 faces (1.0% area) of pressure-outlet 41.
     5  8.9630e-01  2.2425e-03  7.1895e-04  1.0053e-03  0.0000e+00  0.0000e+00  0:07:39  145

 Reversed flow on 1352 faces (5.6% area) of pressure-outlet 41.
     6  6.5861e-01  1.7507e-03  6.3220e-04  7.4824e-04  1.6655e-16  0.0000e+00  0:07:02  144

 Reversed flow on 1387 faces (6.1% area) of pressure-outlet 41.
     7  4.3599e-01  1.2869e-03  5.0179e-04  5.6208e-04  1.6638e-16  0.0000e+00  0:06:33  143

 Reversed flow on 1429 faces (7.1% area) of pressure-outlet 41.
     8  3.0524e-01  9.8712e-04  3.9490e-04  4.3053e-04  1.6454e-16  0.0000e+00  0:06:37  142

 Reversed flow on 1452 faces (7.8% area) of pressure-outlet 41.
     9  2.2821e-01  7.7989e-04  3.1280e-04  3.3730e-04  1.6429e-16  0.0000e+00  0:06:12  141

 Reversed flow on 1484 faces (8.9% area) of pressure-outlet 41.
    10  1.8281e-01  6.2663e-04  2.4991e-04  2.6803e-04  1.6565e-16  0.0000e+00  0:06:19  140

 Reversed flow on 1493 faces (9.2% area) of pressure-outlet 41.
    11  1.7468e-01  5.3014e-04  2.0283e-04  2.2199e-04  1.6415e-16  0.0000e+00  0:06:25  139

 Reversed flow on 1515 faces (10.2% area) of pressure-outlet 41.

  iter  continuity  x-velocity  y-velocity  z-velocity      energy         h2o     time/iter
    12  1.5877e-01  4.7069e-04  1.7441e-04  1.9064e-04  1.6558e-16  0.0000e+00  0:07:51  138

 Reversed flow on 1521 faces (10.5% area) of pressure-outlet 41.
    13  1.7042e-01  4.5085e-04  1.5482e-04  1.7517e-04  1.6273e-16  0.0000e+00  0:07:09  137

 Reversed flow on 1538 faces (11.2% area) of pressure-outlet 41.
    14  1.5255e-01  4.2186e-04  1.4299e-04  1.5651e-04  1.6336e-16  0.0000e+00  0:07:02  136

 Reversed flow on 1555 faces (12.2% area) of pressure-outlet 41.
    15  1.4009e-01  3.8129e-04  1.2902e-04  1.4067e-04  1.6342e-16  0.0000e+00  0:07:23  135

 Reversed flow on 1564 faces (12.8% area) of pressure-outlet 41.
    16  1.3897e-01  3.5844e-04  1.1933e-04  1.3096e-04  1.6283e-16  0.0000e+00  0:07:12  134

 Reversed flow on 1570 faces (13.1% area) of pressure-outlet 41.
    17  1.2870e-01  3.3252e-04  1.1143e-04  1.2010e-04  1.6276e-16  0.0000e+00  0:07:56  133

 Reversed flow on 1567 faces (13.4% area) of pressure-outlet 41.
    18  1.3460e-01  3.1822e-04  1.0423e-04  1.1524e-04  1.6237e-16  0.0000e+00  0:07:37  132

 Reversed flow on 1576 faces (13.8% area) of pressure-outlet 41.
    19  1.2251e-01  2.9817e-04  9.9615e-05  1.0559e-04  1.6240e-16  0.0000e+00  0:07:22  131

 Reversed flow on 1583 faces (14.3% area) of pressure-outlet 41.
    20  1.1776e-01  2.7506e-04  9.2362e-05  9.8735e-05  1.6219e-16  0.0000e+00  0:07:35  130

 Reversed flow on 1586 faces (14.5% area) of pressure-outlet 41.
    21  1.1476e-01  2.6094e-04  8.7816e-05  9.3074e-05  1.6126e-16  0.0000e+00  0:07:18  129

 Reversed flow on 1597 faces (15.3% area) of pressure-outlet 41.
    22  1.1274e-01  2.4661e-04  8.3001e-05  8.7932e-05  1.6094e-16  0.0000e+00  0:07:05  128

 Reversed flow on 1604 faces (15.7% area) of pressure-outlet 41.

  iter  continuity  x-velocity  y-velocity  z-velocity      energy         h2o     time/iter
    23  1.0787e-01  2.3243e-04  7.8810e-05  8.2243e-05  1.6116e-16  0.0000e+00  0:07:19  127

 Reversed flow on 1604 faces (16.0% area) of pressure-outlet 41.
    24  1.0727e-01  2.2370e-04  7.5412e-05  7.9069e-05  1.6084e-16  0.0000e+00  0:07:04  126

 Reversed flow on 1601 faces (15.9% area) of pressure-outlet 41.
    25  1.0225e-01  2.0997e-04  7.1743e-05  7.4076e-05  1.6122e-16  0.0000e+00  0:06:51  125

 Reversed flow on 1608 faces (16.2% area) of pressure-outlet 41.
    26  9.8370e-02  1.9713e-04  6.7696e-05  6.9707e-05  1.6041e-16  0.0000e+00  0:06:41  124

 Reversed flow on 1618 faces (17.6% area) of pressure-outlet 41.
    27  9.4491e-02  1.8548e-04  6.4126e-05  6.5483e-05  1.6070e-16  0.0000e+00  0:06:32  123

 Reversed flow on 1617 faces (17.5% area) of pressure-outlet 41.
    28  9.1788e-02  1.7595e-04  6.1067e-05  6.2132e-05  1.6090e-16  0.0000e+00  0:06:24  122

 Reversed flow on 1617 faces (17.4% area) of pressure-outlet 41.
    29  8.7931e-02  1.6641e-04  5.8380e-05  5.8714e-05  1.6078e-16  0.0000e+00  0:06:42  121

 Reversed flow on 1618 faces (17.7% area) of pressure-outlet 41.
    30  8.6791e-02  1.5750e-04  5.5092e-05  5.5892e-05  1.6112e-16  0.0000e+00  0:06:31  120

 Reversed flow on 1622 faces (18.5% area) of pressure-outlet 41.
    31  8.4852e-02  1.5126e-04  5.2918e-05  5.3304e-05  1.6064e-16  0.0000e+00  0:06:21  119

 Reversed flow on 1624 faces (18.3% area) of pressure-outlet 41.
    32  8.2881e-02  1.4516e-04  5.0925e-05  5.0972e-05  1.6073e-16  0.0000e+00  0:05:50  118

 Reversed flow on 1618 faces (17.8% area) of pressure-outlet 41.
    33  7.8356e-02  1.3799e-04  4.8730e-05  4.8153e-05  1.5977e-16  0.0000e+00  0:05:48  117

 Reversed flow on 1628 faces (18.7% area) of pressure-outlet 41.

  iter  continuity  x-velocity  y-velocity  z-velocity      energy         h2o     time/iter
    34  7.5909e-02  1.3004e-04  4.6183e-05  4.5922e-05  1.6046e-16  0.0000e+00  0:05:45  116

 Reversed flow on 1627 faces (18.4% area) of pressure-outlet 41.
    35  7.3401e-02  1.2414e-04  4.4148e-05  4.3718e-05  1.6051e-16  0.0000e+00  0:06:06  115

 Reversed flow on 1627 faces (18.5% area) of pressure-outlet 41.
    36  7.1304e-02  1.1784e-04  4.2200e-05  4.1491e-05  1.5961e-16  0.0000e+00  0:06:21  114

 Reversed flow on 1625 faces (18.3% area) of pressure-outlet 41.
    37  7.4505e-02  1.1757e-04  4.0628e-05  4.1638e-05  1.5890e-16  0.0000e+00  0:05:48  113

 Reversed flow on 1630 faces (18.8% area) of pressure-outlet 41.
    38  7.0187e-02  1.1413e-04  3.9893e-05  3.9506e-05  1.5918e-16  0.0000e+00  0:05:43  112

 Reversed flow on 1629 faces (18.6% area) of pressure-outlet 41.
    39  6.6775e-02  1.0743e-04  3.8025e-05  3.7334e-05  1.5913e-16  0.0000e+00  0:05:38  111

 Reversed flow on 1623 faces (18.6% area) of pressure-outlet 41.
    40  6.5034e-02  1.0118e-04  3.6137e-05  3.5586e-05  1.5910e-16  0.0000e+00  0:05:12  110

 Reversed flow on 1627 faces (18.7% area) of pressure-outlet 41.
    41  6.1172e-02  9.6484e-05  3.4726e-05  3.3879e-05  1.6016e-16  0.0000e+00  0:05:35  109

 Reversed flow on 1626 faces (19.0% area) of pressure-outlet 41.
    42  6.1059e-02  9.2397e-05  3.2868e-05  3.2906e-05  1.5930e-16  0.0000e+00  0:05:30  108

 Reversed flow on 1634 faces (19.1% area) of pressure-outlet 41.
    43  5.9213e-02  9.0052e-05  3.2325e-05  3.1474e-05  1.5999e-16  0.0000e+00  0:05:26  107

 Reversed flow on 1631 faces (18.9% area) of pressure-outlet 41.
    44  5.7624e-02  8.5269e-05  3.0843e-05  3.0176e-05  1.5910e-16  0.0000e+00  0:05:01  106

 Reversed flow on 1633 faces (19.0% area) of pressure-outlet 41.

  iter  continuity  x-velocity  y-velocity  z-velocity      energy         h2o     time/iter
    45  5.4959e-02  8.1852e-05  2.9612e-05  2.8785e-05  1.5966e-16  0.0000e+00  0:05:01  105

 Reversed flow on 1628 faces (19.7% area) of pressure-outlet 41.
    46  5.2111e-02  7.6294e-05  2.8041e-05  2.7049e-05  1.5977e-16  0.0000e+00  0:05:01  104

 Reversed flow on 1626 faces (19.0% area) of pressure-outlet 41.
    47  5.1081e-02  7.1858e-05  2.6565e-05  2.5915e-05  1.5917e-16  0.0000e+00  0:05:21  103

 Reversed flow on 1635 faces (18.6% area) of pressure-outlet 41.
    48  5.1635e-02  7.1498e-05  2.6160e-05  2.5616e-05  1.5774e-16  0.0000e+00  0:04:55  102

 Reversed flow on 1623 faces (18.8% area) of pressure-outlet 41.
    49  4.9720e-02  6.9031e-05  2.5301e-05  2.4362e-05  1.5858e-16  0.0000e+00  0:04:54  101

 Reversed flow on 1604 faces (19.8% area) of pressure-outlet 41.
    50  4.7586e-02  6.5782e-05  2.4210e-05  2.3353e-05  1.5943e-16  0.0000e+00  0:04:53  100

 Reversed flow on 1639 faces (19.3% area) of pressure-outlet 41.
    51  4.6630e-02  6.2483e-05  2.3132e-05  2.2405e-05  1.5929e-16  0.0000e+00  0:04:52   99

 Reversed flow on 1640 faces (19.3% area) of pressure-outlet 41.
    52  4.5702e-02  6.0450e-05  2.2351e-05  2.1741e-05  1.6038e-16  0.0000e+00  0:04:50   98

 Reversed flow on 1639 faces (19.7% area) of pressure-outlet 41.
    53  4.3906e-02  5.8676e-05  2.1623e-05  2.0897e-05  1.5956e-16  0.0000e+00  0:05:07   97

 Reversed flow on 1633 faces (19.9% area) of pressure-outlet 41.
    54  4.4683e-02  5.8004e-05  2.1108e-05  2.0949e-05  1.5969e-16  0.0000e+00  0:04:41   96

 Reversed flow on 1633 faces (19.0% area) of pressure-outlet 41.
    55  4.2862e-02  5.6481e-05  2.0637e-05  2.0020e-05  1.5896e-16  0.0000e+00  0:04:40   95

 Reversed flow on 1639 faces (19.5% area) of pressure-outlet 41.

  iter  continuity  x-velocity  y-velocity  z-velocity      energy         h2o     time/iter
    56  4.0512e-02  5.3390e-05  1.9912e-05  1.9080e-05  1.5895e-16  0.0000e+00  0:04:57   94

 Reversed flow on 1629 faces (19.9% area) of pressure-outlet 41.
    57  4.1352e-02  5.2618e-05  1.8945e-05  1.9066e-05  1.5772e-16  0.0000e+00  0:04:32   93

 Reversed flow on 1641 faces (20.2% area) of pressure-outlet 41.
    58  3.9938e-02  5.1432e-05  1.8962e-05  1.8269e-05  1.5822e-16  0.0000e+00  0:04:30   92

 Reversed flow on 1635 faces (18.8% area) of pressure-outlet 41.
    59  3.8250e-02  4.9165e-05  1.8069e-05  1.7493e-05  1.5880e-16  0.0000e+00  0:04:29   91

 Reversed flow on 1638 faces (19.3% area) of pressure-outlet 41.
    60  3.6550e-02  4.7122e-05  1.7703e-05  1.6870e-05  1.5875e-16  0.0000e+00  0:04:09   90

 Reversed flow on 1627 faces (19.4% area) of pressure-outlet 41.
    61  3.5483e-02  4.5001e-05  1.7036e-05  1.6065e-05  1.5904e-16  0.0000e+00  0:04:10   89

 Reversed flow on 1639 faces (19.2% area) of pressure-outlet 41.
    62  3.3488e-02  4.2180e-05  1.6121e-05  1.5173e-05  1.5843e-16  0.0000e+00  0:04:11   88

 Reversed flow on 1625 faces (19.3% area) of pressure-outlet 41.
    63  3.2924e-02  3.9981e-05  1.5329e-05  1.4549e-05  1.5712e-16  0.0000e+00  0:04:10   87

 Reversed flow on 1637 faces (19.7% area) of pressure-outlet 41.
    64  3.2770e-02  3.9222e-05  1.5103e-05  1.4251e-05  1.5785e-16  0.0000e+00  0:04:10   86

 Reversed flow on 1642 faces (19.8% area) of pressure-outlet 41.
    65  3.3767e-02  3.9915e-05  1.4826e-05  1.4322e-05  1.5828e-16  0.0000e+00  0:04:08   85

[...]
   118  1.5165e-02  9.7802e-06  5.2100e-06  3.2270e-06  1.5782e-16  0.0000e+00  0:01:18   32

 Reversed flow on 1630 faces (21.9% area) of pressure-outlet 41.
   119  1.5687e-02  9.7142e-06  4.7681e-06  3.1799e-06  1.5773e-16  0.0000e+00  0:01:13   31

 Reversed flow on 1650 faces (21.8% area) of pressure-outlet 41.
   120  1.5543e-02  1.0055e-05  4.7878e-06  3.1970e-06  1.5724e-16  0.0000e+00  0:01:08   30

 Reversed flow on 1646 faces (22.7% area) of pressure-outlet 41.
   121  1.4913e-02  9.5663e-06  5.1394e-06  3.1324e-06  1.5708e-16  0.0000e+00  0:01:10   29

 Reversed flow on 1640 faces (21.2% area) of pressure-outlet 41.

  iter  continuity  x-velocity  y-velocity  z-velocity      energy         h2o     time/iter
   122  1.4586e-02  9.2394e-06  4.7552e-06  3.0052e-06  1.5796e-16  0.0000e+00  0:01:06   28

 Reversed flow on 1641 faces (21.2% area) of pressure-outlet 41.
   123  1.3307e-02  9.5039e-06  4.4707e-06  3.0573e-06  1.5777e-16  0.0000e+00  0:01:01   27

 Reversed flow on 1649 faces (22.9% area) of pressure-outlet 41.
   124  1.2560e-02  8.5592e-06  4.6233e-06  2.9282e-06  1.5755e-16  0.0000e+00  0:00:58   26

 Reversed flow on 1643 faces (21.9% area) of pressure-outlet 41.
   125  1.3971e-02  8.3227e-06  4.6634e-06  2.7661e-06  1.5757e-16  0.0000e+00  0:00:54   25

 Reversed flow on 1640 faces (21.1% area) of pressure-outlet 41.
   126  1.1811e-02  8.5244e-06  3.9170e-06  2.6340e-06  1.5766e-16  0.0000e+00  0:00:56   24

 Reversed flow on 1644 faces (21.8% area) of pressure-outlet 41.
   127  1.1163e-02  8.0157e-06  4.0198e-06  2.5367e-06  1.5725e-16  0.0000e+00  0:00:52   23

 Reversed flow on 1649 faces (21.8% area) of pressure-outlet 41.
   128  1.2595e-02  7.5866e-06  4.0861e-06  2.4940e-06  1.5741e-16  0.0000e+00  0:00:53   22

 Reversed flow on 1639 faces (20.7% area) of pressure-outlet 41.
   129  1.2065e-02  8.3338e-06  3.5107e-06  2.5330e-06  1.5665e-16  0.0000e+00  0:00:49   21

 Reversed flow on 1625 faces (22.5% area) of pressure-outlet 41.
   130  1.1247e-02  7.6054e-06  4.0545e-06  2.3948e-06  1.5707e-16  0.0000e+00  0:00:45   20

 Reversed flow on 1641 faces (20.7% area) of pressure-outlet 41.
   131  1.2537e-02  7.3753e-06  3.7386e-06  2.3522e-06  1.5590e-16  0.0000e+00  0:00:46   19

 Reversed flow on 1642 faces (20.9% area) of pressure-outlet 41.
   132  1.1468e-02  8.2951e-06  3.8273e-06  2.5322e-06  1.5613e-16  0.0000e+00  0:00:42   18

 Reversed flow on 1637 faces (22.6% area) of pressure-outlet 41.

  iter  continuity  x-velocity  y-velocity  z-velocity      energy         h2o     time/iter
   133  1.1728e-02  7.6624e-06  4.2280e-06  2.4400e-06  1.5786e-16  0.0000e+00  0:00:38   17

 Reversed flow on 1629 faces (22.4% area) of pressure-outlet 41.
   134  1.2711e-02  7.5355e-06  4.1415e-06  2.2536e-06  1.5751e-16  0.0000e+00  0:00:39   16

 Reversed flow on 1638 faces (21.5% area) of pressure-outlet 41.
   135  1.1631e-02  7.7947e-06  3.6505e-06  2.3206e-06  1.5688e-16  0.0000e+00  0:00:35   15

 Reversed flow on 1641 faces (21.8% area) of pressure-outlet 41.
   136  1.1900e-02  7.5843e-06  3.7910e-06  2.2558e-06  1.5728e-16  0.0000e+00  0:00:32   14

 Reversed flow on 1633 faces (22.4% area) of pressure-outlet 41.
   137  1.2970e-02  7.1534e-06  4.4766e-06  2.1327e-06  1.5678e-16  0.0000e+00  0:00:29   13

 Reversed flow on 1628 faces (22.3% area) of pressure-outlet 41.
   138  1.2743e-02  7.5217e-06  4.0181e-06  2.1979e-06  1.5627e-16  0.0000e+00  0:00:28   12

 Reversed flow on 1637 faces (22.6% area) of pressure-outlet 41.
   139  1.2411e-02  7.7929e-06  3.8997e-06  2.0979e-06  1.5730e-16  0.0000e+00  0:00:25   11

 Reversed flow on 1638 faces (22.2% area) of pressure-outlet 41.
   140  1.5405e-02  7.1411e-06  4.4564e-06  2.2094e-06  1.5687e-16  0.0000e+00  0:00:22   10

 Reversed flow on 1654 faces (22.0% area) of pressure-outlet 41.
   141  1.2258e-02  7.4871e-06  4.2085e-06  2.1621e-06  1.5649e-16  0.0000e+00  0:00:20    9

 Reversed flow on 1610 faces (22.8% area) of pressure-outlet 41.
   142  1.3173e-02  7.9694e-06  4.0629e-06  1.9945e-06  1.5651e-16  0.0000e+00  0:00:17    8

 Reversed flow on 1639 faces (22.8% area) of pressure-outlet 41.
   143  1.5120e-02  6.9251e-06  4.6119e-06  2.0387e-06  1.5782e-16  0.0000e+00  0:00:16    7

 Reversed flow on 1648 faces (21.8% area) of pressure-outlet 41.

  iter  continuity  x-velocity  y-velocity  z-velocity      energy         h2o     time/iter
   144  1.5063e-02  7.8242e-06  3.8775e-06  2.2051e-06  1.5710e-16  0.0000e+00  0:00:14    6

 Reversed flow on 1649 faces (23.3% area) of pressure-outlet 41.
   145  1.2005e-02  7.0206e-06  4.1943e-06  2.0343e-06  1.5680e-16  0.0000e+00  0:00:11    5

 Reversed flow on 1646 faces (22.9% area) of pressure-outlet 41.
   146  1.4056e-02  7.0079e-06  4.0999e-06  1.9410e-06  1.5656e-16  0.0000e+00  0:00:09    4

 Reversed flow on 1604 faces (21.6% area) of pressure-outlet 41.
   147  1.2387e-02  7.0306e-06  3.6730e-06  1.9617e-06  1.5620e-16  0.0000e+00  0:00:06    3

 Reversed flow on 1645 faces (23.6% area) of pressure-outlet 41.
   148  1.3300e-02  6.6722e-06  3.8491e-06  2.0303e-06  1.5669e-16  0.0000e+00  0:00:05    2

 Reversed flow on 1632 faces (23.4% area) of pressure-outlet 41.
   149  1.4203e-02  7.0985e-06  4.2057e-06  1.9921e-06  1.5767e-16  0.0000e+00  0:00:02    1

 Reversed flow on 1649 faces (22.5% area) of pressure-outlet 41.
   150  1.2263e-02  6.9347e-06  3.8326e-06  1.9423e-06  1.5700e-16  0.0000e+00  0:00:00    0

Calculation complete.
(cx-gui-do cx-activate-item "Information*OK")
(cx-use-window-id 51)
(cx-set-camera-relative '(-0.0260997 0.161356 -0.0144883) '(0 0 0) '(-0.182155 -0.113912 -0.939966) 0 0)
(cx-use-window-id 51)
(cx-set-camera-relative '(0.0226137 -0.00319912 -0.00674666) '(0 0 0) '(-0.0296644 0.0053882 0.0107765) 0 0)
(cx-use-window-id 51)
(cx-set-camera-relative '(-0.00188631 -0.0036383 0.00342633) '(0 0 0) '(0.225605 0.172361 0.54122) 0 0)
(cx-use-window-id 51)
(cx-set-camera-relative '(-0.000539716 0.0118573 -0.00444608) '(0 0 0) '(-0.150631 -0.244465 -0.636654) 0 0)
(cx-use-window-id 51)
(cx-set-camera-relative '(-0.00816694 -0.0378698 0.00869929) '(0 0 0) '(-0.00542263 0.209444 0.969862) 0 0)
(cx-use-window-id 51)
(cx-set-camera-relative '(-0.00220348 0.0384246 -0.00859657) '(0 0 0) '(0.0780718 -0.2132 -0.970326) 0 0)
(cx-gui-do cx-set-list-tree-selections "NavigationPane*Frame2*Table1*List_Tree2" (list "Results|Graphics|Contours"))
(cx-gui-do cx-set-list-tree-selections "NavigationPane*Frame2*Table1*List_Tree2" (list "Results|Graphics|Contours"))
(cx-gui-do cx-activate-item "NavigationPane*Frame2*Table1*List_Tree2")
(cx-gui-do cx-set-list-tree-selections "NavigationPane*Frame2*Table1*List_Tree2" (list "Results|Graphics|Contours"))
(cx-gui-do cx-set-list-selections "Contours*Table1*Frame3*Frame2*List2(Surfaces)" '( 5))
(cx-gui-do cx-activate-item "Contours*Table1*Frame3*Frame2*List2(Surfaces)")
(cx-gui-do cx-activate-item "ToolBar*Mesh Display*fl_mesh_svg_graphics_toolbar")
(cx-gui-do cx-set-toggle-button2 "Mesh Display*Table1*Frame1*Frame1*ToggleBox1(Options)*CheckButton2(Edges)" #t)
(cx-gui-do cx-activate-item "Mesh Display*Table1*Frame1*Frame1*ToggleBox1(Options)*CheckButton2(Edges)")
(cx-gui-do cx-activate-item "Mesh Display*PanelButtons*PushButton1(OK)")
(cx-use-window-id 51)
(cx-gui-do cx-activate-item "Mesh Display*PanelButtons*PushButton2(Cancel)")
(cx-gui-do cx-set-list-selections "Contours*Table1*Frame3*Frame2*List2(Surfaces)" '( 5 6))
(cx-gui-do cx-activate-item "Contours*Table1*Frame3*Frame2*List2(Surfaces)")
(cx-gui-do cx-set-list-selections "Contours*Table1*Frame3*Frame2*List2(Surfaces)" '( 1 5 6))
(cx-gui-do cx-activate-item "Contours*Table1*Frame3*Frame2*List2(Surfaces)")
(cx-gui-do cx-set-list-selections "Contours*Table1*Frame3*Frame2*List2(Surfaces)" '( 1 2 5 6))
(cx-gui-do cx-activate-item "Contours*Table1*Frame3*Frame2*List2(Surfaces)")
(cx-gui-do cx-set-list-selections "Contours*Table1*Frame3*Frame2*List2(Surfaces)" '( 1 2 3 5 6))
(cx-gui-do cx-activate-item "Contours*Table1*Frame3*Frame2*List2(Surfaces)")
(cx-gui-do cx-set-list-selections "Contours*Table1*Frame3*Frame2*List2(Surfaces)" '( 1 2 3 4 5 6))
(cx-gui-do cx-activate-item "Contours*Table1*Frame3*Frame2*List2(Surfaces)")
(cx-gui-do cx-activate-item "Contours*PanelButtons*PushButton1(OK)")
(cx-gui-do cx-activate-item "Contours*PanelButtons*PushButton2(Cancel)")
(cx-use-window-id 51)
(cx-set-camera-relative '(0.0127124 0.0299593 -0.0635028) '(0 0 0) '(0.00661575 -0.698922 -0.327487) 0 0)
(cx-use-window-id 51)
(cx-set-camera-relative '(-0.00202886 -0.0190817 0.0358656) '(0 0 0) '(0.0439279 0.757043 0.406218) 0 0)
(cx-use-window-id 51)
(cx-set-camera-relative '(0.00182176 0.00660452 -0.00824988) '(0 0 0) '(-0.0328649 -0.389124 -0.318227) 0 0)
(cx-use-window-id 51)
(cx-set-camera-relative '(0.00100692 -0.0218168 0.022212) '(0 0 0) '(0.00188697 0.48049 0.460561) 0 0)
(cx-use-window-id 51)
(cx-set-camera-relative '(0.000829343 -0.00851473 0.00160455) '(0 0 0) '(0.0751433 0.0961485 0.47722) 0 0)
(cx-use-window-id 51)
(cx-set-camera-relative '(-0.006054 0.00153145 -6.51479e-05) '(0 0 0) '(-0.0516722 0.00766248 -0.0402481) 0 0)
(cx-use-window-id 51)
(cx-set-camera-relative '(0.00731009 0.0021185 -0.000238642) '(0 0 0) '(-0.0238102 -0.0114549 -0.155426) 0 0)
(cx-use-window-id 51)
(cx-set-camera-relative '(0.00194675 0.00255415 -0.00171341) '(0 0 0) '(-0.158221 -0.132316 -0.356702) 0 0)
(cx-use-window-id 51)
(cx-set-camera-relative '(-0.00153469 -0.00138217 0.000880916) '(0 0 0) '(0.0972412 0.146346 0.438774) 0 0)
(cx-use-window-id 51)
(cx-set-camera-relative '(-0.000296205 0.00134903 -0.000417251) '(0 0 0) '(0.0180715 -0.1194 -0.394844) 0 0)
(cx-use-window-id 51)
(cx-set-camera-relative '(0.0225052 0.0886195 -0.116102) '(0 0 0) '(-0.00313807 -0.648048 -0.493708) 0 0)
(cx-use-window-id 51)
(cx-set-camera-relative '(-0.0053606 -0.00323317 0.00566699) '(0 0 0) '(-0.0365389 0.359008 0.163433) 0 0)
(cx-use-window-id 51)
(cx-set-camera-relative '(0.000753973 -0.00392917 0.00235343) '(0 0 0) '(-0.122398 0.401756 0.720434) 0 0)
(cx-use-window-id 51)
(cx-set-camera-relative '(-0.00565849 0.0113381 -0.0100094) '(0 0 0) '(0.504579 -0.428994 -0.642386) 0 0)
(cx-use-window-id 51)
(cx-set-camera-relative '(0.00392719 0.0183482 0.0168701) '(0 0 0) '(-0.0101227 0.0232938 0.0130212) 0 0)
(cx-use-window-id 51)
(handle-key "control ??")
(cx-use-window-id 51)
(handle-key "control s")
(cx-use-window-id 51)
(cx-gui-do cx-activate-item "MenuBar*WriteSubMenu*Case & Data...")
(cx-gui-do cx-set-file-dialog-entries "Select File" '( "anode_cur.cas.h5") "CFF Case/Data Files (*.cas.h5 *.dat.h5 )")
Fast-loading "E:\Ansys\Ansys.Products.2022.R1.Win64\Program Files\ANSYS Inc\v221\fluent\fluent22.1.0\\addons\afd\lib\hdfio.bin"
Done.

Writing to DESKTOP-6MJKVPJ:"D:/Objects3D/fluent/fuelCell/H2BIKE/fluent/anode_cur.cas.h5" in NODE0 mode and compression level 1 ...
  Writing mesh ...
      745056 cells,     1 zone  ...
     2899328 faces,     8 zones ...
     1442875 nodes,     1 zone  ...
  Done.
Done.

Writing to DESKTOP-6MJKVPJ:"D:/Objects3D/fluent/fuelCell/H2BIKE/fluent/anode_cur.dat.h5" in NODE0 mode and compression level 1 ...
  Writing results.
(cx-use-window-id 51)
(cx-set-camera-relative '(-0.00482775 -0.00723184 0.00626867) '(0 0 0) '(-0.073778 0.183367 0.153764) 0 0)
Done.
(cx-use-window-id 51)
(cx-set-camera-relative '(0.00920418 -0.0210113 0.0128969) '(0 0 0) '(-0.22205 0.220181 0.428354) 0 0)
(cx-gui-do cx-set-list-tree-selections "NavigationPane*Frame2*Table1*List_Tree2" (list "Results|Graphics|Pathlines"))
(cx-gui-do cx-set-list-tree-selections "NavigationPane*Frame2*Table1*List_Tree2" (list "Results|Graphics|Pathlines"))
(cx-gui-do cx-activate-item "NavigationPane*Frame2*Table1*List_Tree2")
(cx-gui-do cx-set-list-tree-selections "NavigationPane*Frame2*Table1*List_Tree2" (list "Results|Graphics|Pathlines"))
(cx-gui-do cx-set-list-selections "Pathlines*Frame4*List3(Release from Surfaces)" '( 3))
(cx-gui-do cx-activate-item "Pathlines*Frame4*List3(Release from Surfaces)")
(cx-gui-do cx-set-integer-entry "Pathlines*Frame3*Frame2*IntegerEntry5(Path Coarsen)" 2)
(cx-gui-do cx-activate-item "Pathlines*Frame3*Frame2*IntegerEntry5(Path Coarsen)")
(cx-gui-do cx-set-integer-entry "Pathlines*Frame3*Frame2*IntegerEntry5(Path Coarsen)" 1)
(cx-gui-do cx-activate-item "Pathlines*Frame3*Frame2*IntegerEntry5(Path Coarsen)")
(cx-gui-do cx-activate-item "Pathlines*PanelButtons*PushButton1(OK)")

number tracked = 1997, incomplete = 1997
(cx-use-window-id 51)
(cx-set-camera-relative '(0.00590291 0.0164659 -0.00510883) '(0 0 0) '(0.00590034 -0.305258 -0.590012) 0 0)
(cx-use-window-id 51)
(cx-set-camera-relative '(-0.0018069 -0.00495626 0.00295121) '(0 0 0) '(-0.0281579 0.281616 0.465534) 0 0)
(cx-gui-do cx-activate-item "Pathlines*PanelButtons*PushButton2(Cancel)")
(cx-use-window-id 51)
(cx-set-camera-relative '(-7.63424e-05 -0.000790339 0.00604129) '(0 0 0) '(-0.0257322 0.0343725 0.206775) 0 0)
(cx-use-window-id 51)
(cx-set-camera-relative '(0.000620551 0.00409074 -0.00282195) '(0 0 0) '(-0.135329 -0.599209 -0.857989) 0 0)
(cx-use-window-id 51)
(cx-set-camera-relative '(-0.000409376 -3.30936e-05 -0.00179368) '(0 0 0) '(0.0640913 -0.808564 0.000116587) 0 0)
(cx-use-window-id 51)
(cx-set-camera-relative '(0.000281371 0.000357253 0.00120567) '(0 0 0) '(-0.0395959 0.301403 -0.0797647) 0 0)
(cx-use-window-id 51)
(cx-set-camera-relative '(0.000631716 4.98733e-05 0.0015147) '(0 0 0) '(-0.00942612 0.189534 -0.00184238) 0 0)
(cx-use-window-id 51)
(cx-set-camera-relative '(0.000467323 -0.00287908 0.00406348) '(0 0 0) '(0.0474057 0.830182 0.583024) 0 0)
(cx-use-window-id 51)
(cx-set-camera-relative '(-0.000188574 -0.00148836 0.000562951) '(0 0 0) '(0.0120378 0.0495136 0.133975) 0 0)
(cx-use-window-id 51)
(cx-set-camera-relative '(-0.0031162 -0.000968817 -0.00193772) '(0 0 0) '(-0.0169978 0.012107 0.503473) 0 0)
(cx-use-window-id 51)
(cx-set-camera-relative '(0.000649564 0.00223089 -0.00079621) '(0 0 0) '(0.66032 -0.221299 0.00376993) 0 0)
(cx-use-window-id 51)
(cx-set-camera-relative '(0.0143315 -0.0118904 0.0203558) '(0 0 0) '(-0.032405 0.0590629 -0.24298) 0 0)
(cx-use-window-id 51)
(cx-set-camera-relative '(-0.0106607 -0.00178153 -0.00929117) '(0 0 0) '(-0.678294 0.153225 0.261571) 0 0)
(cx-use-window-id 51)
(cx-set-camera-relative '(0.0186761 -0.0251745 -0.0064441) '(0 0 0) '(-0.820235 -0.563347 -0.326761) 0 0)
(cx-use-window-id 51)
(cx-set-camera-relative '(0.0147434 -0.00437062 -0.000443902) '(0 0 0) '(-0.0687457 -0.229645 -0.00611032) 0 0)
(cx-use-window-id 51)
(cx-set-camera-relative '(-0.00287326 0.0101956 0.0183595) '(0 0 0) '(0.126134 0.346585 0.0928098) 0 0)
(cx-use-window-id 51)
(cx-set-camera-relative '(0.00169012 -0.00321104 -0.00189536) '(0 0 0) '(0.099256 0.0632824 0.291368) 0 0)
(cx-use-window-id 51)
(cx-set-camera-relative '(-0.00445009 -0.00273164 -0.00591242) '(0 0 0) '(0 0 0) 0 0)
(cx-use-window-id 51)
(cx-set-camera-relative '(-0.00198073 0.00273258 -0.0212115) '(0 0 0) '(-0.0929126 -0.114419 -0.0535679) 0 0)
(cx-use-window-id 51)
(cx-set-camera-relative '(0.0115937 0.0165459 -0.0107454) '(0 0 0) '(0.535633 0.481888 -0.197089) 0 0)
(cx-use-window-id 51)
(cx-set-camera-relative '(-0.000796981 -0.000147138 3.55095e-05) '(0 0 0) '(0.0048866 0.00121325 0.00689232) 0 0)
(cx-use-window-id 51)
(cx-set-camera-relative '(-0.000166908 0.000383329 3.20487e-05) '(0 0 0) '(0.0488078 0.012843 0.0233698) 0 0)
(cx-use-window-id 51)
(cx-set-camera-relative '(0.00917704 0.00573925 0.0027172) '(0 0 0) '(0.0990007 -0.0262403 0.232469) 0 0)
(cx-use-window-id 51)
(cx-set-camera-relative '(-0.00338873 -0.00986358 -0.00221178) '(0 0 0) '(0.115464 0.0505493 -0.470224) 0 0)
(cx-use-window-id 51)
(cx-set-camera-relative '(-0.00665142 0.0194992 -0.00202128) '(0 0 0) '(-0.0463054 -0.072392 0.552025) 0 0)
(cx-use-window-id 51)
(cx-set-camera-relative '(-0.00895203 -0.0554167 0.00570786) '(0 0 0) '(-0.138802 -0.0847965 -0.903839) 0 0)
(cx-use-window-id 51)
(cx-set-camera-relative '(0.00759196 -0.00772273 0.0135692) '(0 0 0) '(0.0245188 -0.791493 -0.46895) 0 0)
(cx-use-window-id 51)
(cx-set-camera-relative '(-4.9077e-05 0.00404265 0.0184975) '(0 0 0) '(0.1436 -0.55177 0.122147) 0 0)
(cx-use-window-id 51)
(cx-set-camera-relative '(-0.00320836 -0.00272432 -0.0115895) '(0 0 0) '(-0.104645 0.645217 -0.121493) 0 0)
(cx-use-window-id 51)
(cx-set-camera-relative '(0.000295233 -0.00216435 0.00256742) '(0 0 0) '(0.0106415 -0.153376 -0.0102963) 0 0)
(cx-use-window-id 51)
(cx-set-camera-relative '(-0.00228789 -0.00137906 -0.000515813) '(0 0 0) '(0.000691175 0.0717229 0.000898182) 0 0)
(cx-use-window-id 51)
(cx-set-camera-relative '(-0.0375196 0.0385709 -0.0672022) '(0 0 0) '(0.244708 0.593315 0.225836) 0 0)
(cx-use-window-id 51)
(cx-set-camera-relative '(0.021023 -0.0268239 0.0644351) '(0 0 0) '(-0.26143 -0.745554 -0.21897) 0 0)
(cx-use-window-id 51)
(cx-set-camera-relative '(0.0187152 0.0104995 0.0175409) '(0 0 0) '(0.065681 -0.629225 0.30641) 0 0)
(cx-use-window-id 51)
(cx-set-camera-relative '(0.00154626 0.00536282 0.0158649) '(0 0 0) '(0.129023 -0.246081 0.464328) 0 0)
(cx-use-window-id 51)
(cx-set-camera-relative '(0.00125536 -0.00313858 -0.00132387) '(0 0 0) '(-0.0561154 0.0418516 -0.141852) 0 0)
(cx-use-window-id 51)
(cx-set-camera-relative '(-0.00347706 -0.0106115 -0.00895279) '(0 0 0) '(-0.193992 0.501639 -0.520698) 0 0)
(cx-use-window-id 51)
(cx-set-camera-relative '(-0.00147499 -0.000956214 -0.00460915) '(0 0 0) '(-0.0345924 0.494266 -0.0915946) 0 0)
(cx-use-window-id 51)
(cx-set-camera-relative '(0.00229459 0.00159362 -0.00742798) '(0 0 0) '(0.136115 0.268337 0.0269682) 0 0)
(cx-use-window-id 51)
(cx-set-camera-relative '(-0.000638556 0.00649348 -0.0100821) '(0 0 0) '(-0.0257833 0.37845 0.245127) 0 0)
(cx-use-window-id 51)
(cx-set-camera-relative '(-0.00370963 0.00096312 -0.000777764) '(0 0 0) '(-0.00240421 0.0454466 0.0503336) 0 0)
(cx-use-window-id 51)
(cx-set-camera-relative '(0.00134973 0.00220698 -0.00157579) '(0 0 0) '(0.000609875 0.119411 0.175063) 0 0)
(cx-use-window-id 51)
(cx-set-camera-relative '(0.00425326 0.0179065 -0.00170739) '(0 0 0) '(-0.0130182 0.0917362 0.676328) 0 0)
(cx-use-window-id 51)
(cx-set-camera-relative '(-0.00117237 0.0167813 0.0103018) '(0 0 0) '(-0.11409 -0.312926 0.49521) 0 0)
(cx-use-window-id 51)
(cx-set-camera-relative '(-0.00286189 0.0114266 0.0259393) '(0 0 0) '(-0.0691062 -0.516083 0.22129) 0 0)
(cx-use-window-id 51)
(cx-set-camera-relative '(0.000901427 -0.000927706 0.00688776) '(0 0 0) '(-0.0492731 -0.382126 -0.0443674) 0 0)
(cx-use-window-id 51)
(cx-set-camera-relative '(0.00226752 0.00147705 0.00256276) '(0 0 0) '(-0.0417315 -0.0821232 -0.0480505) 0 0)
(cx-use-window-id 51)
(cx-set-camera-relative '(-0.00317441 0.00212576 -0.0077501) '(0 0 0) '(-0.00544456 0.470128 0.0490879) 0 0)
(cx-use-window-id 51)
(cx-set-camera-relative '(-0.00392098 -0.00833982 0.0192439) '(0 0 0) '(-0.287518 -0.741901 -0.568833) 0 0)
(cx-use-window-id 51)
(cx-set-camera-relative '(0.00192565 -0.00555026 0.00113787) '(0 0 0) '(0.132343 -0.191278 -0.411259) 0 0)
(cx-use-window-id 51)
(cx-set-camera-relative '(-0.00182622 0.00240624 0.000392497) '(0 0 0) '(0.0573164 -0.0457669 0.0785704) 0 0)
(cx-use-window-id 51)
(cx-set-camera-relative '(-9.03606e-05 0.000260172 -4.84847e-06) '(0 0 0) '(-0.000806749 0.000336468 0.0179155) 0 0)
(cx-use-window-id 51)
(cx-set-camera-relative '(0.000295095 -0.00231591 0.000896549) '(0 0 0) '(0.0273871 6.80089e-05 -0.171195) 0 0)
(cx-use-window-id 51)
(cx-set-camera-relative '(0.00287837 0.00806101 0.000157865) '(0 0 0) '(0.156983 -0.0172549 0.542494) 0 0)
(cx-use-window-id 51)
(cx-set-camera-relative '(0.00102355 0.0108991 -0.00852603) '(0 0 0) '(0.181312 0.581423 0.573442) 0 0)
(cx-use-window-id 51)
(cx-set-camera-relative '(-0.00378681 0.00110909 -0.0329014) '(0 0 0) '(0.12285 0.569859 0.00884432) 0 0)
(cx-use-window-id 51)
/exit y
(cx-gui-do cx-activate-item "Question*OK")
Auto-Transcript Stop Time:  18:52:29, 19 Dec 2023 中国标准时间 
Total Transcript Time: 1 Hour 53 Minute 52 Second.
